LAMMPS (4 May 2022)

units           metal
boundary        p p p
atom_style      atomic

neighbor        1.0 bin
neigh_modify    every 10 delay 0 check no

read_data       ./crd.lmp
Reading data file ...
  orthogonal box = (0 0 0) to (12.359372 12.359372 12.359372)
  reading atoms ...
  64 atoms
replicate       2 2 2
Replicating atoms ...
  orthogonal box = (0 0 0) to (24.718744 24.718744 24.718744)
  512 atoms
  replicate CPU = 0.000 seconds

#pair_style      deepmd ./frozen_model.pb
# pair_style      deepmd ./graph.003.pb ./graph.002.pb ./graph.001.pb ./graph.000.pb  out_freq 100 out_file model_devi.out
pair_style      nvnmd model.pb
pair_coeff      * *

variable        run0    equal   5000
variable        run1    equal   250
variable        run2    equal   5000
variable        run3    equal   100
variable        run4    equal   1000
variable        run5    equal   10000

variable        temp1   equal   300.0
variable        temp2   equal   1800.0
variable        temp3   equal   1000.0
variable        temp4   equal   600.0

variable        dt          equal       2e-3
variable        tau         equal       0.002*100
variable        showt   equal   100
variable        dumpt   equal   1

velocity        all create 300 123456789
timestep        0.002
thermo_style    custom step pe ke etotal temp press vol
thermo          100

#### s1-crystal-300K
label		crystal
fix             0 all nvt temp 300 300 0.2
dump            1 all custom 1 crystal.dump id type x y z
run             5000
Generated 0 of 1 mixed pair_coeff terms from geometric mixing rule
  update every 10 steps, delay 0 steps, check no
Step         PotEng         KinEng         TotEng          Temp          Press          Volume
0   204.41926      19.81558       224.23484      300           -36969.029      15103.555
Averages over the last 26 of 51 rows, steps 2500 to 5000:
PotEng KinEng TotEng Temp Press Volume
219.251 19.6595 238.911 297.637 -22987.4 15103.6
Loop time of 3.57785 on 4 procs for 5000 steps with 512 atoms

write_restart	s1-crystal.restart
System init for write_restart ...
Generated 0 of 1 mixed pair_coeff terms from geometric mixing rule
unfix           0
undump		1

#### s2-melt-2000K
## increase temperature:
variable	i loop 100
variable        t1    equal   300
label		melt
variable        t1    equal   300+50
variable        t2    equal   350+50
fix             1 all nvt temp 350 350 0.2
run             250
Generated 0 of 1 mixed pair_coeff terms from geometric mixing rule
Step         PotEng         KinEng         TotEng          Temp          Press          Volume
5000   219.59405      18.850509      238.44456      285.38921     -23681.863      15103.555
Loop time of 0.127888 on 4 procs for 250 steps with 512 atoms

unfix           1
next i
jump SELF melt
variable        t1    equal   350+50
variable        t2    equal   400+50
fix             1 all nvt temp 400 400 0.2
run             250
Generated 0 of 1 mixed pair_coeff terms from geometric mixing rule
Step         PotEng         KinEng         TotEng          Temp          Press          Volume
5250   222.06299      22.043657      244.10665      333.73219     -22453.104      15103.555
Loop time of 0.131372 on 4 procs for 250 steps with 512 atoms

unfix           1
next i
jump SELF melt
variable        t1    equal   400+50
variable        t2    equal   450+50
fix             1 all nvt temp 450 450 0.2
run             250
Generated 0 of 1 mixed pair_coeff terms from geometric mixing rule
Step         PotEng         KinEng         TotEng          Temp          Press          Volume
5500   225.75754      24.790771      250.54831      375.32241     -21156.737      15103.555
Loop time of 0.130559 on 4 procs for 250 steps with 512 atoms

unfix           1
next i
jump SELF melt
variable        t1    equal   450+50
variable        t2    equal   500+50
fix             1 all nvt temp 500 500 0.2
run             250
Generated 0 of 1 mixed pair_coeff terms from geometric mixing rule
Step         PotEng         KinEng         TotEng          Temp          Press          Volume
5750   229.59664      28.439972      258.03661      430.56986     -21306.168      15103.555
Loop time of 0.128028 on 4 procs for 250 steps with 512 atoms

unfix           1
next i
jump SELF melt
variable        t1    equal   500+50
variable        t2    equal   550+50
fix             1 all nvt temp 550 550 0.2
run             250
Generated 0 of 1 mixed pair_coeff terms from geometric mixing rule
Step         PotEng         KinEng         TotEng          Temp          Press          Volume
6000   234.7999       31.07208       265.87198      470.41893     -18973.656      15103.555
Loop time of 0.131495 on 4 procs for 250 steps with 512 atoms

unfix           1
next i
jump SELF melt
variable        t1    equal   550+50
variable        t2    equal   600+50
fix             1 all nvt temp 600 600 0.2
run             250
Generated 0 of 1 mixed pair_coeff terms from geometric mixing rule
Step         PotEng         KinEng         TotEng          Temp          Press          Volume
6250   239.02376      34.888127      273.91189      528.19236     -18341.673      15103.555
Loop time of 0.136386 on 4 procs for 250 steps with 512 atoms

unfix           1
next i
jump SELF melt
variable        t1    equal   600+50
variable        t2    equal   650+50
fix             1 all nvt temp 650 650 0.2
run             250
Generated 0 of 1 mixed pair_coeff terms from geometric mixing rule
Step         PotEng         KinEng         TotEng          Temp          Press          Volume
6500   241.55047      40.52601       282.07648      613.54767     -17574.564      15103.555
Loop time of 0.130708 on 4 procs for 250 steps with 512 atoms

unfix           1
next i
jump SELF melt
variable        t1    equal   650+50
variable        t2    equal   700+50
fix             1 all nvt temp 700 700 0.2
run             250
Generated 0 of 1 mixed pair_coeff terms from geometric mixing rule
Step         PotEng         KinEng         TotEng          Temp          Press          Volume
6750   245.58473      44.275684      289.86041      670.31624     -15962.786      15103.555
Loop time of 0.128245 on 4 procs for 250 steps with 512 atoms

unfix           1
next i
jump SELF melt
variable        t1    equal   700+50
variable        t2    equal   750+50
fix             1 all nvt temp 750 750 0.2
run             250
Generated 0 of 1 mixed pair_coeff terms from geometric mixing rule
Step         PotEng         KinEng         TotEng          Temp          Press          Volume
7000   250.9895       46.139188      297.12869      698.52895     -14619.419      15103.555
Loop time of 0.132959 on 4 procs for 250 steps with 512 atoms

unfix           1
next i
jump SELF melt
variable        t1    equal   750+50
variable        t2    equal   800+50
fix             1 all nvt temp 800 800 0.2
run             250
Generated 0 of 1 mixed pair_coeff terms from geometric mixing rule
Step         PotEng         KinEng         TotEng          Temp          Press          Volume
7250   254.94767      49.486919      304.43459      749.21226     -13367.281      15103.555
Loop time of 0.129965 on 4 procs for 250 steps with 512 atoms

unfix           1
next i
jump SELF melt
variable        t1    equal   800+50
variable        t2    equal   850+50
fix             1 all nvt temp 850 850 0.2
run             250
Generated 0 of 1 mixed pair_coeff terms from geometric mixing rule
Step         PotEng         KinEng         TotEng          Temp          Press          Volume
7500   257.91448      52.823297      310.73777      799.7237      -11432.837      15103.555
Loop time of 0.131836 on 4 procs for 250 steps with 512 atoms

unfix           1
next i
jump SELF melt
variable        t1    equal   850+50
variable        t2    equal   900+50
fix             1 all nvt temp 900 900 0.2
run             250
Generated 0 of 1 mixed pair_coeff terms from geometric mixing rule
Step         PotEng         KinEng         TotEng          Temp          Press          Volume
7750   261.91354      56.496734      318.41027      855.33807     -10630.313      15103.555
Loop time of 0.129325 on 4 procs for 250 steps with 512 atoms

unfix           1
next i
jump SELF melt
variable        t1    equal   900+50
variable        t2    equal   950+50
fix             1 all nvt temp 950 950 0.2
run             250
Generated 0 of 1 mixed pair_coeff terms from geometric mixing rule
Step         PotEng         KinEng         TotEng          Temp          Press          Volume
8000   264.21748      61.368636      325.58611      929.09673     -7742.4376      15103.555
Loop time of 0.131635 on 4 procs for 250 steps with 512 atoms

unfix           1
next i
jump SELF melt
variable        t1    equal   950+50
variable        t2    equal   1000+50
fix             1 all nvt temp 1000 1000 0.2
run             250
Generated 0 of 1 mixed pair_coeff terms from geometric mixing rule
Step         PotEng         KinEng         TotEng          Temp          Press          Volume
8250   269.74249      63.089507      332.832        955.15004     -7232.8933      15103.555
Loop time of 0.131147 on 4 procs for 250 steps with 512 atoms

unfix           1
next i
jump SELF melt
variable        t1    equal   1000+50
variable        t2    equal   1050+50
fix             1 all nvt temp 1050 1050 0.2
run             250
Generated 0 of 1 mixed pair_coeff terms from geometric mixing rule
Step         PotEng         KinEng         TotEng          Temp          Press          Volume
8500   273.32178      66.494215      339.81599      1006.696      -7075.1584      15103.555
Loop time of 0.130392 on 4 procs for 250 steps with 512 atoms

unfix           1
next i
jump SELF melt
variable        t1    equal   1050+50
variable        t2    equal   1100+50
fix             1 all nvt temp 1100 1100 0.2
run             250
Generated 0 of 1 mixed pair_coeff terms from geometric mixing rule
Step         PotEng         KinEng         TotEng          Temp          Press          Volume
8750   279.87744      68.355645      348.23308      1034.8773     -5250.2129      15103.555
Loop time of 0.132738 on 4 procs for 250 steps with 512 atoms

unfix           1
next i
jump SELF melt
variable        t1    equal   1100+50
variable        t2    equal   1150+50
fix             1 all nvt temp 1150 1150 0.2
run             250
Generated 0 of 1 mixed pair_coeff terms from geometric mixing rule
Step         PotEng         KinEng         TotEng          Temp          Press          Volume
9000   280.71396      77.728041      358.442        1176.7716     -2632.669       15103.555
Loop time of 0.130236 on 4 procs for 250 steps with 512 atoms

unfix           1
next i
jump SELF melt
variable        t1    equal   1150+50
variable        t2    equal   1200+50
fix             1 all nvt temp 1200 1200 0.2
run             250
Generated 0 of 1 mixed pair_coeff terms from geometric mixing rule
Step         PotEng         KinEng         TotEng          Temp          Press          Volume
9250   279.98734      74.693677      354.68102      1130.8325     -3261.9809      15103.555
Loop time of 0.13329 on 4 procs for 250 steps with 512 atoms

unfix           1
next i
jump SELF melt
variable        t1    equal   1200+50
variable        t2    equal   1250+50
fix             1 all nvt temp 1250 1250 0.2
run             250
Generated 0 of 1 mixed pair_coeff terms from geometric mixing rule
Step         PotEng         KinEng         TotEng          Temp          Press          Volume
9500   286.05313      78.272282      364.32541      1185.0112     -1005.5895      15103.555
Loop time of 0.131368 on 4 procs for 250 steps with 512 atoms

unfix           1
next i
jump SELF melt
variable        t1    equal   1250+50
variable        t2    equal   1300+50
fix             1 all nvt temp 1300 1300 0.2
run             250
Generated 0 of 1 mixed pair_coeff terms from geometric mixing rule
Step         PotEng         KinEng         TotEng          Temp          Press          Volume
9750   292.41689      81.076311      373.4932       1227.4631     -1325.1857      15103.555
Loop time of 0.129653 on 4 procs for 250 steps with 512 atoms

unfix           1
next i
jump SELF melt
variable        t1    equal   1300+50
variable        t2    equal   1350+50
fix             1 all nvt temp 1350 1350 0.2
run             250
Generated 0 of 1 mixed pair_coeff terms from geometric mixing rule
Step         PotEng         KinEng         TotEng          Temp          Press          Volume
10000   297.98472      88.292765      386.27748      1336.7173      2771.5961      15103.555
Loop time of 0.131036 on 4 procs for 250 steps with 512 atoms

unfix           1
next i
jump SELF melt
variable        t1    equal   1350+50
variable        t2    equal   1400+50
fix             1 all nvt temp 1400 1400 0.2
run             250
Generated 0 of 1 mixed pair_coeff terms from geometric mixing rule
Step         PotEng         KinEng         TotEng          Temp          Press          Volume
10250   304.88758      93.166154      398.05373      1410.4985      3411.5572      15103.555
Loop time of 0.13035 on 4 procs for 250 steps with 512 atoms

unfix           1
next i
jump SELF melt
variable        t1    equal   1400+50
variable        t2    equal   1450+50
fix             1 all nvt temp 1450 1450 0.2
run             250
Generated 0 of 1 mixed pair_coeff terms from geometric mixing rule
Step         PotEng         KinEng         TotEng          Temp          Press          Volume
10500   318.61802      88.741632      407.35966      1343.513       5334.8152      15103.555
Loop time of 0.129997 on 4 procs for 250 steps with 512 atoms

unfix           1
next i
jump SELF melt
variable        t1    equal   1450+50
variable        t2    equal   1500+50
fix             1 all nvt temp 1500 1500 0.2
run             250
Generated 0 of 1 mixed pair_coeff terms from geometric mixing rule
Step         PotEng         KinEng         TotEng          Temp          Press          Volume
10750   320.16658      99.304256      419.47084      1503.4269      8623.8766      15103.555
Loop time of 0.129855 on 4 procs for 250 steps with 512 atoms

unfix           1
next i
jump SELF melt
variable        t1    equal   1500+50
variable        t2    equal   1550+50
fix             1 all nvt temp 1550 1550 0.2
run             250
Generated 0 of 1 mixed pair_coeff terms from geometric mixing rule
Step         PotEng         KinEng         TotEng          Temp          Press          Volume
11000   341.47926      92.044557      433.52382      1393.518       12439.035      15103.555
Loop time of 0.1292 on 4 procs for 250 steps with 512 atoms

unfix           1
next i
jump SELF melt
variable        t1    equal   1550+50
variable        t2    equal   1600+50
fix             1 all nvt temp 1600 1600 0.2
run             250
Generated 0 of 1 mixed pair_coeff terms from geometric mixing rule
Step         PotEng         KinEng         TotEng          Temp          Press          Volume
11250   350.05942      100.40984      450.46926      1520.165       9171.3713      15103.555
Loop time of 0.128583 on 4 procs for 250 steps with 512 atoms

unfix           1
next i
jump SELF melt
variable        t1    equal   1600+50
variable        t2    equal   1650+50
fix             1 all nvt temp 1650 1650 0.2
run             250
Generated 0 of 1 mixed pair_coeff terms from geometric mixing rule
Step         PotEng         KinEng         TotEng          Temp          Press          Volume
11500   373.78692      97.529595      471.31652      1476.5593      10101.342      15103.555
Loop time of 0.128148 on 4 procs for 250 steps with 512 atoms

unfix           1
next i
jump SELF melt
variable        t1    equal   1650+50
variable        t2    equal   1700+50
fix             1 all nvt temp 1700 1700 0.2
run             250
Generated 0 of 1 mixed pair_coeff terms from geometric mixing rule
Step         PotEng         KinEng         TotEng          Temp          Press          Volume
11750   391.48304      103.74477      495.22781      1570.6545      13905.332      15103.555
Loop time of 0.131267 on 4 procs for 250 steps with 512 atoms

unfix           1
next i
jump SELF melt
variable        t1    equal   1700+50
variable        t2    equal   1750+50
fix             1 all nvt temp 1750 1750 0.2
run             250
Generated 0 of 1 mixed pair_coeff terms from geometric mixing rule
Step         PotEng         KinEng         TotEng          Temp          Press          Volume
12000   402.65238      111.00791      513.66029      1680.6156      12693.417      15103.555
Loop time of 0.127963 on 4 procs for 250 steps with 512 atoms

unfix           1
jump SELF liquid
fix             2 all nvt temp 1800 1800 0.2
dump            1 all custom 1 liquid.dump id type x y z
run             5000
Generated 0 of 1 mixed pair_coeff terms from geometric mixing rule
Step         PotEng         KinEng         TotEng          Temp          Press          Volume
12250   413.36813      114.79414      528.16227      1737.9375      14622.566      15103.555
Averages over the last 26 of 52 rows, steps 14800 to 17250:
PotEng KinEng TotEng Temp Press Volume
418.462 119.516 537.978 1809.43 15802.4 15103.6
Loop time of 3.56981 on 4 procs for 5000 steps with 512 atoms

write_restart   s3-liquid.restart
System init for write_restart ...
Generated 0 of 1 mixed pair_coeff terms from geometric mixing rule
unfix           2
undump		1

# decrease temperature (above melting point):
variable        i loop 100
variable        t1    equal   1800
label           liquid_quench
variable        t1    equal   1800-50
fix             1 all nvt temp 1750 1750 0.2
run             100
Generated 0 of 1 mixed pair_coeff terms from geometric mixing rule
Step         PotEng         KinEng         TotEng          Temp          Press          Volume
17250   420.22329      109.12856      529.35185      1652.1629      17298.411      15103.555
Loop time of 0.0516425 on 4 procs for 100 steps with 512 atoms

unfix           1
next            i
next i
jump SELF liquid_quench
variable        t1    equal   1750-50
fix             1 all nvt temp 1700 1700 0.2
run             100
Generated 0 of 1 mixed pair_coeff terms from geometric mixing rule
Step         PotEng         KinEng         TotEng          Temp          Press          Volume
17350   416.93778      115.85205      532.78982      1753.9539      14479.121      15103.555
Loop time of 0.0557022 on 4 procs for 100 steps with 512 atoms

unfix           1
next            i
next i
jump SELF liquid_quench
variable        t1    equal   1700-50
fix             1 all nvt temp 1650 1650 0.2
run             100
Generated 0 of 1 mixed pair_coeff terms from geometric mixing rule
Step         PotEng         KinEng         TotEng          Temp          Press          Volume
17450   414.42274      115.15821      529.58095      1743.4495      13932.874      15103.555
Loop time of 0.0547826 on 4 procs for 100 steps with 512 atoms

unfix           1
next            i
next i
jump SELF liquid_quench
variable        t1    equal   1650-50
fix             1 all nvt temp 1600 1600 0.2
run             100
Generated 0 of 1 mixed pair_coeff terms from geometric mixing rule
Step         PotEng         KinEng         TotEng          Temp          Press          Volume
17550   416.01623      111.84117      527.85739      1693.2308      13899.702      15103.555
Loop time of 0.052995 on 4 procs for 100 steps with 512 atoms

unfix           1
next            i
next i
jump SELF liquid_quench
variable        t1    equal   1600-50
fix             1 all nvt temp 1550 1550 0.2
run             100
Generated 0 of 1 mixed pair_coeff terms from geometric mixing rule
Step         PotEng         KinEng         TotEng          Temp          Press          Volume
17650   414.57175      106.82409      521.39584      1617.2742      17084.004      15103.555
Loop time of 0.0508709 on 4 procs for 100 steps with 512 atoms

unfix           1
next            i
next i
jump SELF liquid_quench
variable        t1    equal   1550-50
fix             1 all nvt temp 1500 1500 0.2
run             100
Generated 0 of 1 mixed pair_coeff terms from geometric mixing rule
Step         PotEng         KinEng         TotEng          Temp          Press          Volume
17750   411.11162      103.49384      514.60546      1566.8555      11006.12       15103.555
Loop time of 0.0506767 on 4 procs for 100 steps with 512 atoms

unfix           1
next            i
next i
jump SELF liquid_quench
variable        t1    equal   1500-50
fix             1 all nvt temp 1450 1450 0.2
run             100
Generated 0 of 1 mixed pair_coeff terms from geometric mixing rule
Step         PotEng         KinEng         TotEng          Temp          Press          Volume
17850   404.05168      105.33407      509.38575      1594.7159      10309.077      15103.555
Loop time of 0.0510303 on 4 procs for 100 steps with 512 atoms

unfix           1
next            i
next i
jump SELF liquid_quench
variable        t1    equal   1450-50
fix             1 all nvt temp 1400 1400 0.2
run             100
Generated 0 of 1 mixed pair_coeff terms from geometric mixing rule
Step         PotEng         KinEng         TotEng          Temp          Press          Volume
17950   406.10207      95.916396      502.01847      1452.1361      9816.3762      15103.555
Loop time of 0.0533673 on 4 procs for 100 steps with 512 atoms

unfix           1
next            i
next i
jump SELF liquid_quench
variable        t1    equal   1400-50
fix             1 all nvt temp 1350 1350 0.2
run             100
Generated 0 of 1 mixed pair_coeff terms from geometric mixing rule
Step         PotEng         KinEng         TotEng          Temp          Press          Volume
18050   400.49658      97.294567      497.79115      1473.001       5475.7648      15103.555
Loop time of 0.0530495 on 4 procs for 100 steps with 512 atoms

unfix           1
next            i
next i
jump SELF liquid_quench
variable        t1    equal   1350-50
fix             1 all nvt temp 1300 1300 0.2
run             100
Generated 0 of 1 mixed pair_coeff terms from geometric mixing rule
Loop time of 0.0517924 on 4 procs for 100 steps with 512 atoms

unfix           1
next            i
next i
jump SELF liquid_quench
variable        t1    equal   1300-50
fix             1 all nvt temp 1250 1250 0.2
run             100
Generated 0 of 1 mixed pair_coeff terms from geometric mixing rule
Loop time of 0.0508865 on 4 procs for 100 steps with 512 atoms

unfix           1
next            i
next i
jump SELF liquid_quench
variable        t1    equal   1250-50
fix             1 all nvt temp 1200 1200 0.2
run             100
Generated 0 of 1 mixed pair_coeff terms from geometric mixing rule
Loop time of 0.0527307 on 4 procs for 100 steps with 512 atoms

unfix           1
next            i
next i
jump SELF liquid_quench
variable        t1    equal   1200-50
fix             1 all nvt temp 1150 1150 0.2
run             100
Generated 0 of 1 mixed pair_coeff terms from geometric mixing rule
Loop time of 0.053961 on 4 procs for 100 steps with 512 atoms

unfix           1
next            i
next i
jump SELF liquid_quench
variable        t1    equal   1150-50
fix             1 all nvt temp 1100 1100 0.2
run             100
Generated 0 of 1 mixed pair_coeff terms from geometric mixing rule
Loop time of 0.0529948 on 4 procs for 100 steps with 512 atoms

unfix           1
next            i
next i
jump SELF liquid_quench
variable        t1    equal   1100-50
fix             1 all nvt temp 1050 1050 0.2
run             100
Generated 0 of 1 mixed pair_coeff terms from geometric mixing rule
Loop time of 0.0513864 on 4 procs for 100 steps with 512 atoms

unfix           1
next            i
next i
jump SELF liquid_quench
variable        t1    equal   1050-50
fix             1 all nvt temp 1000 1000 0.2
run             100
Generated 0 of 1 mixed pair_coeff terms from geometric mixing rule
Loop time of 0.050303 on 4 procs for 100 steps with 512 atoms

unfix           1
next            i
jump SELF quench
variable        i loop 100
variable        t1    equal   1000
label           amorphous_quench
variable        t1    equal   1000-50
fix             1 all nvt temp 950 950 0.2
run             1000
Generated 0 of 1 mixed pair_coeff terms from geometric mixing rule
Loop time of 0.533623 on 4 procs for 1000 steps with 512 atoms

unfix           1
next i
jump SELF amorphous_quench
variable        t1    equal   950-50
fix             1 all nvt temp 900 900 0.2
run             1000
Generated 0 of 1 mixed pair_coeff terms from geometric mixing rule
Loop time of 0.530464 on 4 procs for 1000 steps with 512 atoms

unfix           1
next i
jump SELF amorphous_quench
variable        t1    equal   900-50
fix             1 all nvt temp 850 850 0.2
run             1000
Generated 0 of 1 mixed pair_coeff terms from geometric mixing rule
Loop time of 0.528725 on 4 procs for 1000 steps with 512 atoms

unfix           1
next i
jump SELF amorphous_quench
variable        t1    equal   850-50
fix             1 all nvt temp 800 800 0.2
run             1000
Generated 0 of 1 mixed pair_coeff terms from geometric mixing rule
Loop time of 0.523274 on 4 procs for 1000 steps with 512 atoms

unfix           1
next i
jump SELF amorphous_quench
variable        t1    equal   800-50
fix             1 all nvt temp 750 750 0.2
run             1000
Generated 0 of 1 mixed pair_coeff terms from geometric mixing rule
Loop time of 0.519388 on 4 procs for 1000 steps with 512 atoms

unfix           1
next i
jump SELF amorphous_quench
variable        t1    equal   750-50
fix             1 all nvt temp 700 700 0.2
run             1000
Generated 0 of 1 mixed pair_coeff terms from geometric mixing rule
Loop time of 0.52189 on 4 procs for 1000 steps with 512 atoms

unfix           1
next i
jump SELF amorphous_quench
variable        t1    equal   700-50
fix             1 all nvt temp 650 650 0.2
run             1000
Generated 0 of 1 mixed pair_coeff terms from geometric mixing rule
Loop time of 0.531149 on 4 procs for 1000 steps with 512 atoms

unfix           1
next i
jump SELF amorphous_quench
variable        t1    equal   650-50
fix             1 all nvt temp 600 600 0.2
run             1000
Generated 0 of 1 mixed pair_coeff terms from geometric mixing rule
Loop time of 0.523919 on 4 procs for 1000 steps with 512 atoms

unfix           1
next i
jump SELF amorphous_quench
variable        t1    equal   600-50
fix             1 all nvt temp 550 550 0.2
run             1000
Generated 0 of 1 mixed pair_coeff terms from geometric mixing rule
Loop time of 0.516313 on 4 procs for 1000 steps with 512 atoms

unfix           1
next i
jump SELF amorphous_quench
variable        t1    equal   550-50
fix             1 all nvt temp 500 500 0.2
run             1000
Generated 0 of 1 mixed pair_coeff terms from geometric mixing rule
Loop time of 0.529929 on 4 procs for 1000 steps with 512 atoms

unfix           1
next i
jump SELF amorphous_quench
variable        t1    equal   500-50
fix             1 all nvt temp 450 450 0.2
run             1000
Generated 0 of 1 mixed pair_coeff terms from geometric mixing rule
Loop time of 0.526299 on 4 procs for 1000 steps with 512 atoms

unfix           1
next i
jump SELF amorphous_quench
variable        t1    equal   450-50
fix             1 all nvt temp 400 400 0.2
run             1000
Generated 0 of 1 mixed pair_coeff terms from geometric mixing rule
Loop time of 0.521021 on 4 procs for 1000 steps with 512 atoms

unfix           1
next i
jump SELF amorphous_quench
variable        t1    equal   400-50
fix             1 all nvt temp 350 350 0.2
run             1000
Generated 0 of 1 mixed pair_coeff terms from geometric mixing rule
Loop time of 0.515925 on 4 procs for 1000 steps with 512 atoms

unfix           1
next i
jump SELF amorphous_quench
variable        t1    equal   350-50
fix             1 all nvt temp 300 300 0.2
run             1000
Generated 0 of 1 mixed pair_coeff terms from geometric mixing rule
Loop time of 0.525509 on 4 procs for 1000 steps with 512 atoms

unfix           1
write_restart   s4-quench.restart
System init for write_restart ...
Generated 0 of 1 mixed pair_coeff terms from geometric mixing rule
jump SELF age
fix             4 all nvt temp 300 300 0.2
dump            1 all custom 1 amorphous.dump id type x y z
run             10000
Generated 0 of 1 mixed pair_coeff terms from geometric mixing rule
Loop time of 7.06814 on 4 procs for 10000 steps with 512 atoms

write_restart   s5-amorphous.restart
System init for write_restart ...
Generated 0 of 1 mixed pair_coeff terms from geometric mixing rule
unfix           4
undump		1

# ##### s4-Amo-600K: to increase temperature up to 600K
#
# thermo_style    custom step pe ke etotal temp press vol
# write_restart   nvt7.restart
# unfix           7
#
#
# #### s8-Amo to crys: stable a time in 600K
#
# thermo_style    custom step pe ke etotal temp press vol
# restart         100000 smc.restart
# write_restart   nvt8.restart
# unfix           8
#
# ##### 600K -> 300K
#
# thermo_style    custom step pe ke etotal temp press vol
# write_restart   nvt9.restart
# unfix           9
#
# ##### 300K -> 300K
#
# thermo_style    custom step pe ke etotal temp press vol
# write_restart   nvt10.restart
# unfix           10
