LAMMPS (4 May 2022)
## variable
variable        temp            equal 400
variable        eql_step        equal 500000
variable        rd_seed         equal 2

variable        temp_damp       equal 0.2 # tau_NVT = timestep * 100
variable        t_step          equal 0.002
variable        rlx_step        equal 20000

variable        thermo_freq     equal 100
variable        dump_freq       equal 100

## units
dimension       3
boundary        p p p
units           metal
atom_style      atomic
neighbor        1.0 bin
neigh_modify    every 10 delay 0 check no

## data.lmp, potential
read_data       data.lmp
Reading data file ...
  orthogonal box = (0 0 0) to (26.16621 26.16621 25.2548)
  reading atoms ...
  900 atoms
pair_style      nvnmd model.pb
pair_coeff * *

## velocity, timestep
velocity        all create 400 2 loop geom
timestep        0.002

## nvt-relax
fix             equil all nvt temp 400 400 0.2
run             20000
Generated 0 of 6 mixed pair_coeff terms from geometric mixing rule
  update every 10 steps, delay 0 steps, check no
Step          Temp          E_pair         E_mol          TotEng         Press
0   400            201.17586      0              247.65781      16168.803
Loop time of 12.1037 on 1 procs for 20000 steps with 900 atoms

unfix           equil

## nvt-equal
reset_timestep  0
fix             equil all nvt temp 400 400 0.2
fix             com all recenter INIT INIT INIT

## thermo_style
thermo_style    custom step time temp ke etotal press
thermo          100
thermo_modify   flush yes
dump            1 all custom 100 dump.lammpstraj id type x y z
run             500000
Generated 0 of 6 mixed pair_coeff terms from geometric mixing rule
Step          Time           Temp          KinEng         TotEng         Press
0   0              414.56177      48.174097      284.39816      12519.698
Averages over the last 2501 of 5001 rows, steps 250000 to 500000:
Temp KinEng TotEng Press
399.854 46.465 285.416 15525.8
Loop time of 328.783 on 1 procs for 500000 steps with 900 atoms
