LAMMPS (4 May 2022)
## variable
variable        temp            equal 800
variable        eql_step        equal 500000
variable        rd_seed         equal 3

variable        temp_damp       equal 0.2 # tau_NVT = timestep * 100
variable        t_step          equal 0.002
variable        rlx_step        equal 20000

variable        thermo_freq     equal 100
variable        dump_freq       equal 100

## units
dimension       3
boundary        p p p
units           metal
atom_style      atomic
neighbor        1.0 bin
neigh_modify    every 10 delay 0 check no

## data.lmp, potential
read_data       data.lmp
Reading data file ...
  orthogonal box = (0 0 0) to (26.50221 26.50221 25.4788)
  reading atoms ...
  900 atoms
pair_style      mdpu model.pb
pair_coeff * *

## velocity, timestep
velocity        all create 800 3 loop geom
timestep        0.002

## nvt-relax
fix             equil all nvt temp 800 800 0.2
run             20000
Generated 0 of 6 mixed pair_coeff terms from geometric mixing rule
  update every 10 steps, delay 0 steps, check no
Step          Temp          E_pair         E_mol          TotEng         Press
0   800            198.65691      0              291.62081      7043.6154
Loop time of 12.0358 on 1 procs for 20000 steps with 900 atoms

unfix           equil

## nvt-equal
reset_timestep  0
fix             equil all nvt temp 800 800 0.2
fix             com all recenter INIT INIT INIT

## thermo_style
thermo_style    custom step time temp ke etotal press
thermo          100
thermo_modify   flush yes
dump            1 all custom 100 dump.lammpstraj id type x y z
run             500000
Generated 0 of 6 mixed pair_coeff terms from geometric mixing rule
Step          Time           Temp          KinEng         TotEng         Press
0   0              797.09868      92.626749      382.66313      13607.748
Averages over the last 2501 of 5001 rows, steps 250000 to 500000:
Temp KinEng TotEng Press
799.632 92.9212 384.46 14014.9
Loop time of 327.223 on 1 procs for 500000 steps with 900 atoms
