LAMMPS (4 May 2022)
units 			metal
dimension		3
boundary		p    p    p				# Periodic boundary condition
atom_style		atomic					# Only the default values, coarse-grain liquids, solids, metals
box         	tilt large				# LAMMPS normally requires that no tilt factor can skew the box more than half the distance of the parallel box length, but tilt large allow.

neighbor 0.0 bin
neigh_modify    every 10 delay 0 check no		# Check no, rebuild anyway

read_data   	copper.lmp
Reading data file ...
  triclinic box = (0 0 0) to (117 117 117) with tilt (0 0 0)
  reading atoms ...
  133374 atoms
mass            1 63.54600000

pair_style 		nvnmd model.pb
# pair_style 		deepmd model.pb
# pair_style 	deepmd copper1.pb copper2.pb copper3.pb copper4.pb 100 model-devi.out
pair_coeff		* *				# Coefficient of petential function

variable        Ttarget equal 300.0			# Target tempture for annealing and MD

# compute		thermo_pe    all pe			# System potential energy
# compute 		thermo_temp  all temp
compute			mypress all  pressure thermo_temp
compute			myCNA   all cna/atom 3.10215312	# Common neighbor analysis

timestep		0.005  	# unit==psec==10^-12sec
thermo			100  	# 100==0.5psec			# Output frequency
thermo_style    custom step temp fmax fnorm c_thermo_temp c_thermo_pe press c_thermo_press[*] lx ly lz vol	# Box lengths in x,y,z

# no annealing?
# how to annealing though?

delete_atoms 	overlap 1.0 all all
System init for delete_atoms ...
Generated 0 of 0 mixed pair_coeff terms from geometric mixing rule
  update every 10 steps, delay 0 steps, check no
Deleted 590 atoms, new total = 132784

# dump          1 all custom 100 dump.relax id type xs ys zs fx fy fz c_atom_order[*]	# dump command, fx fy fz: forces on atoms
velocity        all create 300 9999 dist gaussian mom yes rot yes
fix             5 all npt temp 300 300 $(100.0*dt) iso 0.0 0.0 $(1000.0*dt)
fix             5 all npt temp 300 300 0.5 iso 0.0 0.0 $(1000.0*dt)
fix             5 all npt temp 300 300 0.5 iso 0.0 0.0 5
run             10000                                                                   # Pdamp = pressure damping parameter (time units)
Generated 0 of 0 mixed pair_coeff terms from geometric mixing rule
  update every 10 steps, delay 0 steps, check no
Step          Temp           Fmax          Fnorm      c_thermo_temp   c_thermo_pe       Press      c_thermo_press[1] c_thermo_press[2] c_thermo_press[3] c_thermo_press[4] c_thermo_press[5] c_thermo_press[6]       Lx             Ly             Lz           Volume
0   300            54.35018       1566.7472      300           -12720.404      69182.926      69099.545      69273.175      69176.059      129.89308     -339.91525      312.25193      117            117            117            1601613
Averages over the last 51 of 101 rows, steps 5000 to 10000:
Temp Fmax Fnorm c_thermo_temp c_thermo_pe Press c_thermo_press[1] c_thermo_press[2] c_thermo_press[3] c_thermo_press[4] c_thermo_press[5] c_thermo_press[6] Lx Ly Lz Volume
300.028 2.33634 257.39 300.028 -46980.4 -3.7398 101.436 67.4271 -180.083 208.73 366.037 -349.65 117.935 117.935 117.935 1.64032e+06
Loop time of 541.567 on 8 procs for 10000 steps with 132784 atoms

unfix           5

min_style       cg
min_modify      dmax 0.01 norm max
fix             1 all box/relax iso 0.0
minimize        1.000000e-13 1.000000e+3 5000 5000
Generated 0 of 0 mixed pair_coeff terms from geometric mixing rule
Step          Temp           Fmax          Fnorm      c_thermo_temp   c_thermo_pe       Press      c_thermo_press[1] c_thermo_press[2] c_thermo_press[3] c_thermo_press[4] c_thermo_press[5] c_thermo_press[6]       Lx             Ly             Lz           Volume
10000   300.30801      2.4172745      257.68453      300.30801     -46995.416     -64.628214      87.26966       10.071272     -291.22558      263.73577      352.69183     -405.23725      117.93459      117.93459      117.93459      1640301.1
Loop time of 1.27824 on 8 procs for 9 steps with 132784 atoms

Minimization stats:
  Stopping criterion = force tolerance
  Energy initial, next-to-last, final =
  Force two-norm initial, final = 10510.361 820.0528
  Force max component initial, final = 10507.201 777.63442
  Final line search alpha, max atom move = 5.1762767e-08 4.0252509e-05
  Iterations, force evaluations = 9 10

unfix           1
fix             1 all box/relax aniso 0.0
minimize        1.000000e-13 2.000000e+2 5000 5000
Generated 0 of 0 mixed pair_coeff terms from geometric mixing rule
Step          Temp           Fmax          Fnorm      c_thermo_temp   c_thermo_pe       Press      c_thermo_press[1] c_thermo_press[2] c_thermo_press[3] c_thermo_press[4] c_thermo_press[5] c_thermo_press[6]       Lx             Ly             Lz           Volume
10009   300.30801      2.4391727      260.32921      300.30801     -47000.196      3111.3235      3265.1719      3187.0991      2881.6995      266.00092      354.96524     -410.06093      117.83434      117.83434      117.83434      1636121.9
Loop time of 0.167456 on 8 procs for 1 steps with 132784 atoms

Minimization stats:
  Stopping criterion = force tolerance
  Energy initial, next-to-last, final =
  Force two-norm initial, final = 609.33916 376.78261
  Force max component initial, final = 512.41485 261.27828
  Final line search alpha, max atom move = 1.9515438e-07 5.09896e-05
  Iterations, force evaluations = 1 1

unfix           1
fix             1 all box/relax tri 0.0
minimize        1.000000e-13 1.000000e+2 5000 5000
Generated 0 of 0 mixed pair_coeff terms from geometric mixing rule
Step          Temp           Fmax          Fnorm      c_thermo_temp   c_thermo_pe       Press      c_thermo_press[1] c_thermo_press[2] c_thermo_press[3] c_thermo_press[4] c_thermo_press[5] c_thermo_press[6]       Lx             Ly             Lz           Volume
10010   300.30801      2.4404926      260.48632      300.30801     -47000.301      3301.7374      3416.0346      3361.052       3128.1255      265.60256      353.92607     -408.84349      117.83256      117.83005      117.82256      1635873.8
Loop time of 0.794653 on 8 procs for 6 steps with 132784 atoms

Minimization stats:
  Stopping criterion = force tolerance
  Energy initial, next-to-last, final =
  Force two-norm initial, final = 722.84939 295.85042
  Force max component initial, final = 420.71655 92.007558
  Final line search alpha, max atom move = 6.8405186e-07 6.2937941e-05
  Iterations, force evaluations = 6 6

unfix           1

timestep        0.0005
min_style       quickmin
min_modify      dmax 0.01 norm max
fix             2 all viscous 0.2
minimize        0.0 100 5000 5000
Generated 0 of 0 mixed pair_coeff terms from geometric mixing rule
Step          Temp           Fmax          Fnorm      c_thermo_temp   c_thermo_pe       Press      c_thermo_press[1] c_thermo_press[2] c_thermo_press[3] c_thermo_press[4] c_thermo_press[5] c_thermo_press[6]       Lx             Ly             Lz           Volume
10016   0              2.4430408      260.53165      0             -47000.886     -1.2245208     -1.133234      -4.0952106      1.5548822      64.157906      81.180766     -90.096071      117.84395      117.83238      117.80279      1635789.9
Loop time of 0.0896039 on 8 procs for 1 steps with 132784 atoms

Minimization stats:
  Stopping criterion = force tolerance
  Energy initial, next-to-last, final =
  Force two-norm initial, final = 260.53165 256.57586
  Force max component initial, final = 2.4430408 2.4059468
  Final line search alpha, max atom move = 0 0
  Iterations, force evaluations = 1 1

unfix           2

min_style       cg
min_modify      dmax 0.01 norm max
fix             1 all box/relax tri 0.0
minimize        1.000000e-13 5.000000e+1 1000 10000
Generated 0 of 0 mixed pair_coeff terms from geometric mixing rule
Step          Temp           Fmax          Fnorm      c_thermo_temp   c_thermo_pe       Press      c_thermo_press[1] c_thermo_press[2] c_thermo_press[3] c_thermo_press[4] c_thermo_press[5] c_thermo_press[6]       Lx             Ly             Lz           Volume
10017   0.075058001    2.4430408      260.53165      0.075058001   -47000.886     -0.38332776    -0.28858248    -3.2530477      2.3916469      64.1597        81.179217     -90.098357      117.84395      117.83238      117.80279      1635789.9
Loop time of 0.179461 on 8 procs for 1 steps with 132784 atoms

Minimization stats:
  Stopping criterion = force tolerance
  Energy initial, next-to-last, final =
  Force two-norm initial, final = 295.85463 267.37946
  Force max component initial, final = 92.009383 38.020551
  Final line search alpha, max atom move = 1.0868457e-06 4.1322471e-05
  Iterations, force evaluations = 1 1

unfix           1

timestep        0.0005
min_style       quickmin
min_modify      dmax 0.01 norm max
fix             2 all viscous 0.2
minimize        0.0 2.0e+1 10000 10000
Generated 0 of 0 mixed pair_coeff terms from geometric mixing rule
Step          Temp           Fmax          Fnorm      c_thermo_temp   c_thermo_pe       Press      c_thermo_press[1] c_thermo_press[2] c_thermo_press[3] c_thermo_press[4] c_thermo_press[5] c_thermo_press[6]       Lx             Ly             Lz           Volume
10018   0              2.4432774      260.53294      0             -47000.983      3.7279509      2.3031606      2.0115086      6.8691836      29.224309      34.19087      -37.230139      117.84381      117.83185      117.80299      1635783.3
Loop time of 0.08978 on 8 procs for 1 steps with 132784 atoms

Minimization stats:
  Stopping criterion = force tolerance
  Energy initial, next-to-last, final =
  Force two-norm initial, final = 260.53294 256.57712
  Force max component initial, final = 2.4432774 2.4061798
  Final line search alpha, max atom move = 0 0
  Iterations, force evaluations = 1 1

unfix           2

min_style       cg
min_modify      dmax 0.01 norm max
fix             1 all box/relax tri 0.0
minimize        1.000000e-13 1.000000e+1 10000 10000
Generated 0 of 0 mixed pair_coeff terms from geometric mixing rule
Step          Temp           Fmax          Fnorm      c_thermo_temp   c_thermo_pe       Press      c_thermo_press[1] c_thermo_press[2] c_thermo_press[3] c_thermo_press[4] c_thermo_press[5] c_thermo_press[6]       Lx             Ly             Lz           Volume
10019   0.075058741    2.4432774      260.53294      0.075058741   -47000.983      4.5691557      3.1478104      2.8536887      7.705968       29.22591       34.189054     -37.232123      117.84381      117.83185      117.80299      1635783.3
Loop time of 20.4519 on 8 procs for 56 steps with 132784 atoms

Minimization stats:
  Stopping criterion = quadratic factors are zero
  Energy initial, next-to-last, final =
  Force two-norm initial, final = 267.37942 289.86184
  Force max component initial, final = 38.020378 90.873474
  Final line search alpha, max atom move = 2.6236323e-13 2.3841858e-11
  Iterations, force evaluations = 56 164

unfix           1

min_style       quickmin
min_modify      dmax 0.01 norm max
fix             2 all viscous 0.1
minimize        0.0 1.0e-0 20000 20000
Generated 0 of 0 mixed pair_coeff terms from geometric mixing rule
Step          Temp           Fmax          Fnorm      c_thermo_temp   c_thermo_pe       Press      c_thermo_press[1] c_thermo_press[2] c_thermo_press[3] c_thermo_press[4] c_thermo_press[5] c_thermo_press[6]       Lx             Ly             Lz           Volume
10075   0              2.4219608      259.61525      0             -47027.21       66.885079      25.989371      85.653187      89.012679      2.1057385     -0.84636288     2.405205       117.84291      117.82457      117.79645      1635578.9
Loop time of 5.36907 on 8 procs for 42 steps with 132784 atoms

Minimization stats:
  Stopping criterion = force tolerance
  Energy initial, next-to-last, final =
  Force two-norm initial, final = 259.61525 127.74753
  Force max component initial, final = 2.4219608 0.93226005
  Final line search alpha, max atom move = 0 0
  Iterations, force evaluations = 42 42

unfix           2

min_style       cg
min_modify      dmax 0.01 norm max
fix             1 all box/relax tri 0.0
minimize        1.000000e-13 5.000000e-1 20000 20000
Generated 0 of 0 mixed pair_coeff terms from geometric mixing rule
Step          Temp           Fmax          Fnorm      c_thermo_temp   c_thermo_pe       Press      c_thermo_press[1] c_thermo_press[2] c_thermo_press[3] c_thermo_press[4] c_thermo_press[5] c_thermo_press[6]       Lx             Ly             Lz           Volume
10117   78.845927      1.4005337      191.85171      78.845927     -48673.985     -4948.8314     -5004.4293     -4928.3182     -4913.7468     -0.24164416     9.0429138     -9.1596197      117.84291      117.82457      117.79645      1635578.9
Loop time of 26.3882 on 8 procs for 39 steps with 132784 atoms

Minimization stats:
  Stopping criterion = quadratic factors are zero
  Energy initial, next-to-last, final =
  Force two-norm initial, final = 10315.024 206.00865
  Force max component initial, final = 6014.3108 49.707945
  Final line search alpha, max atom move = 4.7963878e-13 2.3841858e-11
  Iterations, force evaluations = 39 209

unfix           1

min_style       quickmin
min_modify      dmax 0.01 norm max
fix             2 all viscous 0.2
minimize        0.0 4.0e-1 20000 20000
Generated 0 of 0 mixed pair_coeff terms from geometric mixing rule
Step          Temp           Fmax          Fnorm      c_thermo_temp   c_thermo_pe       Press      c_thermo_press[1] c_thermo_press[2] c_thermo_press[3] c_thermo_press[4] c_thermo_press[5] c_thermo_press[6]       Lx             Ly             Lz           Volume
10156   0              1.4311829      195.35883      0             -48689.479     -17.236487     -48.841477     -23.640568      20.772583      13.611182     -18.491908      14.946212      117.6587       117.64651      117.61559      1628050.8
Loop time of 9.66632 on 8 procs for 77 steps with 132784 atoms

Minimization stats:
  Stopping criterion = force tolerance
  Energy initial, next-to-last, final =
  Force two-norm initial, final = 195.35883 48.618362
  Force max component initial, final = 1.4311829 0.35097857
  Final line search alpha, max atom move = 0 0
  Iterations, force evaluations = 77 77

unfix           2

min_style       cg
min_modify      dmax 0.01 norm max
fix             1 all box/relax tri 0.0
minimize        1.000000e-13 2.000000e-1 20000 20000
Generated 0 of 0 mixed pair_coeff terms from geometric mixing rule
Step          Temp           Fmax          Fnorm      c_thermo_temp   c_thermo_pe       Press      c_thermo_press[1] c_thermo_press[2] c_thermo_press[3] c_thermo_press[4] c_thermo_press[5] c_thermo_press[6]       Lx             Ly             Lz           Volume
10233   23.593351      0.85505676     118.72654      23.593351     -50400.941     -5864.4762     -5912.0584     -5869.8141     -5811.5561      19.989282     -2.5368433     -2.9011582      117.6587       117.64651      117.61559      1628050.8
Loop time of 11.8693 on 8 procs for 20 steps with 132784 atoms

Minimization stats:
  Stopping criterion = quadratic factors are zero
  Energy initial, next-to-last, final =
  Force two-norm initial, final = 10790.128 738.51593
  Force max component initial, final = 6278.6361 443.97081
  Final line search alpha, max atom move = 4.2961127e-13 1.9073486e-10
  Iterations, force evaluations = 20 91

unfix           1

timestep        0.0005
min_style       quickmin
min_modify      dmax 0.01 norm max
fix             2 all viscous 0.2
minimize        0.0 1.0e-1 40000 40000
Generated 0 of 0 mixed pair_coeff terms from geometric mixing rule
Step          Temp           Fmax          Fnorm      c_thermo_temp   c_thermo_pe       Press      c_thermo_press[1] c_thermo_press[2] c_thermo_press[3] c_thermo_press[4] c_thermo_press[5] c_thermo_press[6]       Lx             Ly             Lz           Volume
10253   0              0.868927       120.78918      0             -50414.251     -414.62024     -438.19817     -416.57788     -389.08467      13.104625     -2.6477331     -1.4423839      117.48244      117.47256      117.44478      1620851.2
Averages over the last 10 of 19 rows, steps 11100 to 11974:
Temp Fmax Fnorm c_thermo_temp c_thermo_pe Press c_thermo_press[1] c_thermo_press[2] c_thermo_press[3] c_thermo_press[4] c_thermo_press[5] c_thermo_press[6] Lx Ly Lz Volume
0.0829376 0.128423 4.18821 0.0829376 -52521.9 -7050.62 -7073.98 -7014.56 -7063.33 89.7607 64.0969 -134.811 117.482 117.473 117.445 1.62085e+06
Loop time of 222.661 on 8 procs for 1721 steps with 132784 atoms

Minimization stats:
  Stopping criterion = force tolerance
  Energy initial, next-to-last, final =
  Force two-norm initial, final = 120.78918 2.9270785
  Force max component initial, final = 0.868927 0.074957544
  Final line search alpha, max atom move = 0 0
  Iterations, force evaluations = 1721 1721

unfix           2

min_style       cg
min_modify      dmax 0.01 norm max
fix             1 all box/relax tri 0.0
minimize        1.000000e-13 1.000000e-1 40000 40000
Generated 0 of 0 mixed pair_coeff terms from geometric mixing rule
Step          Temp           Fmax          Fnorm      c_thermo_temp   c_thermo_pe       Press      c_thermo_press[1] c_thermo_press[2] c_thermo_press[3] c_thermo_press[4] c_thermo_press[5] c_thermo_press[6]       Lx             Ly             Lz           Volume
11974   0.037492599    0.14693069     5.6994652      0.037492599   -52566.132     -7123.6196     -7145.8162     -7078.8435     -7146.1991      99.958104      71.277331     -151.64901      117.48244      117.47256      117.44478      1620851.2
Loop time of 19.654 on 8 procs for 22 steps with 132784 atoms

Minimization stats:
  Stopping criterion = quadratic factors are zero
  Energy initial, next-to-last, final =
  Force two-norm initial, final = 12484.715 218.68316
  Force max component initial, final = 7229.9194 114.56654
  Final line search alpha, max atom move = 8.3241958e-13 9.5367432e-11
  Iterations, force evaluations = 22 152

unfix           1

min_style       quickmin
min_modify      dmax 0.01 norm max
fix             2 all viscous 0.2
minimize        0.0 5.0e-2 40000 40000
Generated 0 of 0 mixed pair_coeff terms from geometric mixing rule
Step          Temp           Fmax          Fnorm      c_thermo_temp   c_thermo_pe       Press      c_thermo_press[1] c_thermo_press[2] c_thermo_press[3] c_thermo_press[4] c_thermo_press[5] c_thermo_press[6]       Lx             Ly             Lz           Volume
11996   0              0.14649582     5.9239624      0             -52595.658     -104.18129     -113.65599     -89.029135     -109.85874      60.767077      41.533902     -93.248621      117.2682       117.26294      117.2309       1612067.2
Averages over the last 25 of 50 rows, steps 14400 to 16788:
Temp Fmax Fnorm c_thermo_temp c_thermo_pe Press c_thermo_press[1] c_thermo_press[2] c_thermo_press[3] c_thermo_press[4] c_thermo_press[5] c_thermo_press[6] Lx Ly Lz Volume
0.00304597 0.0461226 1.0353 0.00304597 -52656.5 -236.514 -257.471 -184.06 -268.01 85.5365 77.2337 -156.272 117.268 117.263 117.231 1.61207e+06
Loop time of 615.773 on 8 procs for 4792 steps with 132784 atoms

Minimization stats:
  Stopping criterion = force tolerance
  Energy initial, next-to-last, final =
  Force two-norm initial, final = 5.9239624 0.86542967
  Force max component initial, final = 0.14649582 0.041915642
  Final line search alpha, max atom move = 0 0
  Iterations, force evaluations = 4792 4792

unfix           2

min_style       cg
min_modify      dmax 0.01 norm max
fix             1 all box/relax tri 0.0
minimize        1.000000e-13 2.000000e-2 40000 40000
Generated 0 of 0 mixed pair_coeff terms from geometric mixing rule
Step          Temp           Fmax          Fnorm      c_thermo_temp   c_thermo_pe       Press      c_thermo_press[1] c_thermo_press[2] c_thermo_press[3] c_thermo_press[4] c_thermo_press[5] c_thermo_press[6]       Lx             Ly             Lz           Volume
16788   0.0017371882   0.071044922    1.4602305      0.0017371882  -52661.41      -239.00564     -263.18447     -182.84236     -270.9901       87.623852      84.470607     -163.53468      117.2682       117.26294      117.2309       1612067.2
Loop time of 5.11089 on 8 procs for 1 steps with 132784 atoms

Minimization stats:
  Stopping criterion = quadratic factors are zero
  Energy initial, next-to-last, final =
  Force two-norm initial, final = 469.50708 469.50708
  Force max component initial, final = 272.68315 272.68315
  Final line search alpha, max atom move = 6.9947434e-13 1.9073486e-10
  Iterations, force evaluations = 1 39

unfix           1

min_style       quickmin
min_modify      dmax 0.01 norm max
fix             2 all viscous 0.2
minimize        0.0 1.0e-2 50000 50000
Generated 0 of 0 mixed pair_coeff terms from geometric mixing rule
Step          Temp           Fmax          Fnorm      c_thermo_temp   c_thermo_pe       Press      c_thermo_press[1] c_thermo_press[2] c_thermo_press[3] c_thermo_press[4] c_thermo_press[5] c_thermo_press[6]       Lx             Ly             Lz           Volume
16789   0              0.071044922    1.4602305      0             -52661.41      -239.0254      -263.20433     -182.86174     -271.01012      87.623576      84.470598     -163.535        117.2682       117.26294      117.2309       1612067.2
Averages over the last 251 of 502 rows, steps 41800 to 66789:
Temp Fmax Fnorm c_thermo_temp c_thermo_pe Press c_thermo_press[1] c_thermo_press[2] c_thermo_press[3] c_thermo_press[4] c_thermo_press[5] c_thermo_press[6] Lx Ly Lz Volume
2.31834e-05 0.0557958 0.303744 2.31834e-05 -52677.6 -237.163 -276.071 -179.596 -255.822 95.6325 144.199 -180.307 117.268 117.263 117.231 1.61207e+06
Loop time of 6427.71 on 8 procs for 50000 steps with 132784 atoms

Minimization stats:
  Stopping criterion = max iterations
  Energy initial, next-to-last, final =
  Force two-norm initial, final = 1.4602305 0.26469535
  Force max component initial, final = 0.071044922 0.041879148
  Final line search alpha, max atom move = 0 0
  Iterations, force evaluations = 50000 50000

unfix           2

min_style       cg
min_modify      dmax 0.01 norm max
fix             1 all box/relax tri 0.0
minimize        1.000000e-13 1.000000e-2 50000 50000
Generated 0 of 0 mixed pair_coeff terms from geometric mixing rule
Step          Temp           Fmax          Fnorm      c_thermo_temp   c_thermo_pe       Press      c_thermo_press[1] c_thermo_press[2] c_thermo_press[3] c_thermo_press[4] c_thermo_press[5] c_thermo_press[6]       Lx             Ly             Lz           Volume
66789   1.1070787e-05  0.049512863    0.30956134     1.1070787e-05 -52678.265     -235.21489     -275.35275     -181.41673     -248.87518      95.249614      150.28095     -178.75776      117.2682       117.26294      117.2309       1612067.2
Loop time of 9.27659 on 8 procs for 2 steps with 132784 atoms

Minimization stats:
  Stopping criterion = quadratic factors are zero
  Energy initial, next-to-last, final =
  Force two-norm initial, final = 487.0483 486.95324
  Force max component initial, final = 277.05272 276.99658
  Final line search alpha, max atom move = 6.8858202e-13 1.9073486e-10
  Iterations, force evaluations = 2 72

unfix           1

min_style       quickmin
min_modify      dmax 0.01 norm max
fix             2 all viscous 0.2
minimize        0.0 1.0e-2 50000 50000
Generated 0 of 0 mixed pair_coeff terms from geometric mixing rule
Step          Temp           Fmax          Fnorm      c_thermo_temp   c_thermo_pe       Press      c_thermo_press[1] c_thermo_press[2] c_thermo_press[3] c_thermo_press[4] c_thermo_press[5] c_thermo_press[6]       Lx             Ly             Lz           Volume
66791   0              0.049510956    0.30974179     0             -52678.27      -235.15841     -275.29709     -181.36933     -248.80881      95.229239      150.249       -178.76638      117.2682       117.26294      117.2309       1612067.2
Averages over the last 251 of 502 rows, steps 91800 to 116791:
Temp Fmax Fnorm c_thermo_temp c_thermo_pe Press c_thermo_press[1] c_thermo_press[2] c_thermo_press[3] c_thermo_press[4] c_thermo_press[5] c_thermo_press[6] Lx Ly Lz Volume
3.51121e-06 0.0448948 0.2105 3.51121e-06 -52679.5 -235.727 -274.818 -190.908 -241.456 98.5809 157.283 -176.187 117.268 117.263 117.231 1.61207e+06
Loop time of 6428.3 on 8 procs for 50000 steps with 132784 atoms

Minimization stats:
  Stopping criterion = max iterations
  Energy initial, next-to-last, final =
  Force two-norm initial, final = 0.30974179 0.18899707
  Force max component initial, final = 0.049510956 0.038204661
  Final line search alpha, max atom move = 0 0
  Iterations, force evaluations = 50000 50000

unfix           2

timestep        0.005
fix             5 all npt temp 300 300 $(100.0*dt) iso 0.0 0.0 $(1000.0*dt)
fix             5 all npt temp 300 300 0.5 iso 0.0 0.0 $(1000.0*dt)
fix             5 all npt temp 300 300 0.5 iso 0.0 0.0 5
run             100000                                                                   # Pdamp = pressure damping parameter (time units)
Generated 0 of 0 mixed pair_coeff terms from geometric mixing rule
Step          Temp           Fmax          Fnorm      c_thermo_temp   c_thermo_pe       Press      c_thermo_press[1] c_thermo_press[2] c_thermo_press[3] c_thermo_press[4] c_thermo_press[5] c_thermo_press[6]       Lx             Ly             Lz           Volume
116791   1.7002715e-06  0.042034149    0.20510794     1.7002715e-06 -52679.646     -235.11583     -273.59989     -191.82305     -239.92454      99.495636      158.8544      -175.00888      117.2682       117.26294      117.2309       1612067.2
Averages over the last 501 of 1002 rows, steps 166800 to 216791:
Temp Fmax Fnorm c_thermo_temp c_thermo_pe Press c_thermo_press[1] c_thermo_press[2] c_thermo_press[3] c_thermo_press[4] c_thermo_press[5] c_thermo_press[6] Lx Ly Lz Volume
300.028 2.31648 257.491 300.028 -47218.7 -1.03391 -208.927 160.729 45.0965 148.434 333.487 -83.0189 117.918 117.913 117.881 1.63903e+06
Loop time of 5459.26 on 8 procs for 100000 steps with 132784 atoms

unfix           5

# What is a drag?
# In some cases (e.g. for solids) the pressure (volume) and/or temperature of the system can oscillate undesirably when a Nose/Hoover barostat and thermostat is applied.
# Typically a value between 0.2 to 2.0 is sufficient to damp oscillations after a few periods.
# Note that use of the drag keyword will interfere with energy conservation and will also change the distribution of positions and velocities so that they do not correspond to the nominal NVT# , NPT, or NPH ensembles.
# drag 0.1 ~ 2.0 is suitable

# dt = timestep size (time units)
# fix 1 all nvt temp 300.0 300.0 $(100.0*dt)
# A good choice for many models is a Pdamp of around 1000 timesteps

variable		L equal lz
variable		L0 equal 117.885511755943
variable		strain equal (v_L-v_L0)/v_L0	# define strain
variable                truestrain equal ln(1+v_strain)
variable 		pzz equal c_mypress[3]/10000	# stress. units, 1 GPa=1000 MPa, 1 bar=0.1 MPa. so 1 GPa = 10000 bar.
variable		pzzsq equal v_pzz*v_pzz

fix				strainstress all ave/time 1 100 100  v_strain v_truestrain v_pzz v_pzzsq  file strainstress.log
fix				9 all deform 1 z erate 0.0005  remap x	# L(t) = L0 (1 + erate*dt)
fix             10 all npt temp 300 300 $(100.0*dt) x 0.0 0.0 $(1000.0*dt) y 0.0 0.0 $(1000.0*dt) couple xy
fix             10 all npt temp 300 300 0.5 x 0.0 0.0 $(1000.0*dt) y 0.0 0.0 $(1000.0*dt) couple xy
fix             10 all npt temp 300 300 0.5 x 0.0 0.0 5 y 0.0 0.0 $(1000.0*dt) couple xy
fix             10 all npt temp 300 300 0.5 x 0.0 0.0 5 y 0.0 0.0 5 couple xy
fix				11 all momentum 20 linear 1 1 1
dump            1 all custom 4000 copper.dump id type x y z c_myCNA
run				52000
Generated 0 of 0 mixed pair_coeff terms from geometric mixing rule
Step          Temp           Fmax          Fnorm      c_thermo_temp   c_thermo_pe       Press      c_thermo_press[1] c_thermo_press[2] c_thermo_press[3] c_thermo_press[4] c_thermo_press[5] c_thermo_press[6]       Lx             Ly             Lz           Volume
216791   301.04348      2.5346565      257.80513      301.04348     -47229.151     -145.39928     -531.47798      198.25225     -102.9721       172.92888      310.71834     -15.413937      117.92303      117.91773      117.88551      1639223.5
Averages over the last 261 of 522 rows, steps 242800 to 268791:
Temp Fmax Fnorm c_thermo_temp c_thermo_pe Press c_thermo_press[1] c_thermo_press[2] c_thermo_press[3] c_thermo_press[4] c_thermo_press[5] c_thermo_press[6] Lx Ly Lz Volume
300.005 2.31144 254.141 300.005 -46622.2 -6398.16 -329.275 338.709 -19203.9 980.514 92.7974 508.378 112.932 112.927 129.382 1.64965e+06
Loop time of 2903.43 on 8 procs for 52000 steps with 132784 atoms

unfix 			strainstress
unfix           10
unfix			11

write_restart	restart.npt.21
System init for write_restart ...
Generated 0 of 0 mixed pair_coeff terms from geometric mixing rule
