LAMMPS (4 May 2022)
# Au Equilibrium of msst shock dynamics
# Energy in eV, time in ps, distance in angstroms.

variable	temp equal 300		# equlibrium temperature
variable	press equal 1		# equlibrium pressure
variable	Num equal 10

units		metal
boundary        p p p

atom_style	atomic
lattice		fcc 4.08
Lattice spacing in x,y,z = 4.08 4.08 4.08
region		sim_box block 0 10 0 10 0 10
create_box	1 sim_box
Created orthogonal box = (0 0 0) to (40.8 40.8 40.8)
create_atoms	1 box
Created 4000 atoms

pair_style	nvnmd model.pb
pair_coeff	* *

thermo		1000
atom_modify	sort 10000 0.0
mass		1 197

# Define initial velocity

velocity	all create 600 123456 mom yes rot yes dist gaussian

# Equilibrate the system

variable	tdamp equal 100*dt
variable	pdamp equal 1000*dt
fix		NPT all npt temp 300 300 0.1 iso 1 1 1

thermo_style 	custom step cpu temp press ke pe vol density
thermo          1000

#Settings

dump            imf all custom 10000 Coords_ShockCompression0.txt id type x y z vx vy vz
timestep	1e-3

run		100000
Generated 0 of 0 mixed pair_coeff terms from geometric mixing rule
  update every 1 steps, delay 10 steps, check yes
Step          CPU            Temp          Press          KinEng         PotEng         Volume        Density
0   0              600           -38254.902      310.14679     -14747.537      67917.312      19.266143
Averages over the last 51 of 101 rows, steps 50000 to 100000:
Temp Press KinEng PotEng Volume Density
300.006 -148.348 155.077 -14604 67670 19.3366
Loop time of 186.176 on 4 procs for 100000 steps with 4000 atoms

undump		imf
write_restart	restart.equil_Au
System init for write_restart ...
Generated 0 of 0 mixed pair_coeff terms from geometric mixing rule

reset_timestep	0
clear
jump		in.msst
# Au Equilibrium of msst shock dynamics

# Energy in eV, time in ps, distance in angstroms.

variable	temp equal 300		# equlibrium temperature
variable	press equal 1		# equlibrium pressure
#variable	up index 40 45 50 55 60 65 70 75 # shock velocity  km/s
variable	up index 40 45 50 55 60 65 70 # shock velocity  km/s

units		metal
boundary        p p p

#plugin		clear
#plugin		load libdeepmd_lmp.so
read_restart	restart.equil_Au
Reading restart file ...
  restart file = 4 May 2022, LAMMPS = 4 May 2022
  restoring atom style atomic from restart
  orthogonal box = (0.023407936 0.023407936 0.023407936) to (40.776592 40.776592 40.776592)
  restoring pair style nvnmd from restart
  4000 atoms
  read_restart CPU = 0.000 seconds

# DEBUG2, add new rcut
pair_style	nvnmd model.pb
pair_coeff	* *

## DEBUG1, add neighbor
neighbor        0.0 bin
neigh_modify    every 1 delay 0 check no

thermo		1000
atom_modify	sort 10000 0.0
mass		1 197

#Settings

timestep	1e-3

# MSST fix

fix             msst all msst z 40 q 36 mu 0.903 tscale 0.02
MSST parameters:
  Shock in z direction
  Cell mass-like parameter qmass (units of mass^2/length^4) = 36
  Shock velocity = 40
  Artificial viscosity (units of mass/length/time) = 0.903
  Initial pressure calculated on first step
  Initial volume calculated on first step
  Initial energy calculated on first step

variable	time equal dt*step
variable	temp equal temp
variable	rho equal density

variable	volume equal vol			# volume
variable	pzz equal pzz				# axial stress
variable	tau equal 0.5*(pzz-0.5*(pxx+pyy))	# shear stress
variable	tauvm equal sqrt(0.5*(pzz-pyy)^2+(pzz-pxx)^2+(pxx-pyy)^2)	# Von Mises Stress
variable	dhug equal f_msst[1]
variable	dray equal f_msst[2]
variable	lgr_vel equal f_msst[3]
variable	lgr_pos equal f_msst[4]
variable	msst equal econserve

thermo_style 	custom step cpu temp ke pe lx ly lz pxx pyy pzz etotal v_dhug v_dray v_lgr_vel v_lgr_pos v_msst
thermo		1000

# pair correlation

compute		rdf all rdf 100 1 1
fix		rdf all ave/time 100 1000 100000 c_rdf[*] file RDF_40.txt mode vector

# Coordinate

compute		keatom all ke/atom
compute		peatom all pe/atom
variable	keatom atom c_keatom
variable	peatom atom c_peatom

dump		imf all custom 10000 Coords_ShockCompression_40.txt id type x y z vx vy vz

run	        200000
Generated 0 of 0 mixed pair_coeff terms from geometric mixing rule
Unused restart file global fix info:
  fix style: npt, fix ID: NPT
  update every 1 steps, delay 0 steps, check no
Fix MSST v0 = 67683.786
Fix MSST p0 = -1196.0362
Fix MSST e0 = -14448.83
Fix MSST initial strain rate of -0.53533268 established by reducing temperature by factor of 0.02
Step          CPU            Temp          KinEng         PotEng           Lx             Ly             Lz            Pxx            Pyy            Pzz           TotEng         v_dhug         v_dray       v_lgr_vel      v_lgr_pos        v_msst
100000   0              294.63327      152.29927     -14604.238      40.753184      40.753184      40.753184     -805.32133     -789.60575     -1244.5564     -14451.938      3.006462      -48.520252      0              0             -14448.83
Averages over the last 101 of 201 rows, steps 200000 to 300000:
Temp KinEng PotEng Lx Ly Lz Pxx Pyy Pzz TotEng v_dhug v_dray v_lgr_vel v_lgr_pos v_msst
587.303 303.583 -13755.5 40.7532 40.7532 35.7034 345103 345272 382144 -13451.9 0.230324 56.775 4.95643 -5256.92 -14448.9
Loop time of 793.854 on 4 procs for 200000 steps with 4000 atoms

write_restart	restart_shock.40
System init for write_restart ...
Generated 0 of 0 mixed pair_coeff terms from geometric mixing rule

clear
next		up
jump		in.msst
# Au Equilibrium of msst shock dynamics

# Energy in eV, time in ps, distance in angstroms.

variable	temp equal 300		# equlibrium temperature
variable	press equal 1		# equlibrium pressure
#variable	up index 40 45 50 55 60 65 70 75 # shock velocity  km/s
variable	up index 40 45 50 55 60 65 70 # shock velocity  km/s

units		metal
boundary        p p p

#plugin		clear
#plugin		load libdeepmd_lmp.so
read_restart	restart.equil_Au
Reading restart file ...
  restart file = 4 May 2022, LAMMPS = 4 May 2022
  restoring atom style atomic from restart
  orthogonal box = (0.023407936 0.023407936 0.023407936) to (40.776592 40.776592 40.776592)
  restoring pair style nvnmd from restart
  4000 atoms
  read_restart CPU = 0.000 seconds

# DEBUG2, add new rcut
pair_style	nvnmd model.pb
pair_coeff	* *

## DEBUG1, add neighbor
neighbor        0.0 bin
neigh_modify    every 1 delay 0 check no

thermo		1000
atom_modify	sort 10000 0.0
mass		1 197

#Settings

timestep	1e-3

# MSST fix

fix             msst all msst z 45 q 36 mu 0.903 tscale 0.02
MSST parameters:
  Shock in z direction
  Cell mass-like parameter qmass (units of mass^2/length^4) = 36
  Shock velocity = 45
  Artificial viscosity (units of mass/length/time) = 0.903
  Initial pressure calculated on first step
  Initial volume calculated on first step
  Initial energy calculated on first step

variable	time equal dt*step
variable	temp equal temp
variable	rho equal density

variable	volume equal vol			# volume
variable	pzz equal pzz				# axial stress
variable	tau equal 0.5*(pzz-0.5*(pxx+pyy))	# shear stress
variable	tauvm equal sqrt(0.5*(pzz-pyy)^2+(pzz-pxx)^2+(pxx-pyy)^2)	# Von Mises Stress
variable	dhug equal f_msst[1]
variable	dray equal f_msst[2]
variable	lgr_vel equal f_msst[3]
variable	lgr_pos equal f_msst[4]
variable	msst equal econserve

thermo_style 	custom step cpu temp ke pe lx ly lz pxx pyy pzz etotal v_dhug v_dray v_lgr_vel v_lgr_pos v_msst
thermo		1000

# pair correlation

compute		rdf all rdf 100 1 1
fix		rdf all ave/time 100 1000 100000 c_rdf[*] file RDF_45.txt mode vector

# Coordinate

compute		keatom all ke/atom
compute		peatom all pe/atom
variable	keatom atom c_keatom
variable	peatom atom c_peatom

dump		imf all custom 10000 Coords_ShockCompression_45.txt id type x y z vx vy vz

run	        200000
Generated 0 of 0 mixed pair_coeff terms from geometric mixing rule
Unused restart file global fix info:
  fix style: npt, fix ID: NPT
  update every 1 steps, delay 0 steps, check no
Fix MSST v0 = 67683.786
Fix MSST p0 = -1196.0362
Fix MSST e0 = -14448.83
Fix MSST initial strain rate of -0.53533268 established by reducing temperature by factor of 0.02
Step          CPU            Temp          KinEng         PotEng           Lx             Ly             Lz            Pxx            Pyy            Pzz           TotEng         v_dhug         v_dray       v_lgr_vel      v_lgr_pos        v_msst
100000   0              294.63327      152.29927     -14604.238      40.753184      40.753184      40.753184     -805.32133     -789.60575     -1244.5564     -14451.938      3.006462      -48.520252      0              0             -14448.83
Averages over the last 101 of 201 rows, steps 200000 to 300000:
Temp KinEng PotEng Lx Ly Lz Pxx Pyy Pzz TotEng v_dhug v_dray v_lgr_vel v_lgr_pos v_msst
1211.33 626.152 -12348.6 40.7532 40.7532 33.3407 682847 670368 710991 -11722.4 0.653779 128.365 8.18489 -5517.33 -14448.9
Loop time of 838.8 on 4 procs for 200000 steps with 4000 atoms

write_restart	restart_shock.45
System init for write_restart ...
Generated 0 of 0 mixed pair_coeff terms from geometric mixing rule

clear
next		up
jump		in.msst
# Au Equilibrium of msst shock dynamics

# Energy in eV, time in ps, distance in angstroms.

variable	temp equal 300		# equlibrium temperature
variable	press equal 1		# equlibrium pressure
#variable	up index 40 45 50 55 60 65 70 75 # shock velocity  km/s
variable	up index 40 45 50 55 60 65 70 # shock velocity  km/s

units		metal
boundary        p p p

#plugin		clear
#plugin		load libdeepmd_lmp.so
read_restart	restart.equil_Au
Reading restart file ...
  restart file = 4 May 2022, LAMMPS = 4 May 2022
  restoring atom style atomic from restart
  orthogonal box = (0.023407936 0.023407936 0.023407936) to (40.776592 40.776592 40.776592)
  restoring pair style nvnmd from restart
  4000 atoms
  read_restart CPU = 0.000 seconds

# DEBUG2, add new rcut
pair_style	nvnmd model.pb
pair_coeff	* *

## DEBUG1, add neighbor
neighbor        0.0 bin
neigh_modify    every 1 delay 0 check no

thermo		1000
atom_modify	sort 10000 0.0
mass		1 197

#Settings

timestep	1e-3

# MSST fix

fix             msst all msst z 50 q 36 mu 0.903 tscale 0.02
MSST parameters:
  Shock in z direction
  Cell mass-like parameter qmass (units of mass^2/length^4) = 36
  Shock velocity = 50
  Artificial viscosity (units of mass/length/time) = 0.903
  Initial pressure calculated on first step
  Initial volume calculated on first step
  Initial energy calculated on first step

variable	time equal dt*step
variable	temp equal temp
variable	rho equal density

variable	volume equal vol			# volume
variable	pzz equal pzz				# axial stress
variable	tau equal 0.5*(pzz-0.5*(pxx+pyy))	# shear stress
variable	tauvm equal sqrt(0.5*(pzz-pyy)^2+(pzz-pxx)^2+(pxx-pyy)^2)	# Von Mises Stress
variable	dhug equal f_msst[1]
variable	dray equal f_msst[2]
variable	lgr_vel equal f_msst[3]
variable	lgr_pos equal f_msst[4]
variable	msst equal econserve

thermo_style 	custom step cpu temp ke pe lx ly lz pxx pyy pzz etotal v_dhug v_dray v_lgr_vel v_lgr_pos v_msst
thermo		1000

# pair correlation

compute		rdf all rdf 100 1 1
fix		rdf all ave/time 100 1000 100000 c_rdf[*] file RDF_50.txt mode vector

# Coordinate

compute		keatom all ke/atom
compute		peatom all pe/atom
variable	keatom atom c_keatom
variable	peatom atom c_peatom

dump		imf all custom 10000 Coords_ShockCompression_50.txt id type x y z vx vy vz

run	        200000
Generated 0 of 0 mixed pair_coeff terms from geometric mixing rule
Unused restart file global fix info:
  fix style: npt, fix ID: NPT
  update every 1 steps, delay 0 steps, check no
Fix MSST v0 = 67683.786
Fix MSST p0 = -1196.0362
Fix MSST e0 = -14448.83
Fix MSST initial strain rate of -0.53533268 established by reducing temperature by factor of 0.02
Step          CPU            Temp          KinEng         PotEng           Lx             Ly             Lz            Pxx            Pyy            Pzz           TotEng         v_dhug         v_dray       v_lgr_vel      v_lgr_pos        v_msst
100000   0              294.63327      152.29927     -14604.238      40.753184      40.753184      40.753184     -805.32133     -789.60575     -1244.5564     -14451.938      3.006462      -48.520252      0              0             -14448.83
Averages over the last 101 of 201 rows, steps 200000 to 300000:
Temp KinEng PotEng Lx Ly Lz Pxx Pyy Pzz TotEng v_dhug v_dray v_lgr_vel v_lgr_pos v_msst
2258.83 1167.62 -10052.5 40.7532 40.7532 31.2289 1.13097e+06 1.131e+06 1.1275e+06 -8884.88 -3.68165 -834.71 11.6853 -5746.69 -14449
Loop time of 889.138 on 4 procs for 200000 steps with 4000 atoms

write_restart	restart_shock.50
System init for write_restart ...
Generated 0 of 0 mixed pair_coeff terms from geometric mixing rule

clear
next		up
jump		in.msst
# Au Equilibrium of msst shock dynamics

# Energy in eV, time in ps, distance in angstroms.

variable	temp equal 300		# equlibrium temperature
variable	press equal 1		# equlibrium pressure
#variable	up index 40 45 50 55 60 65 70 75 # shock velocity  km/s
variable	up index 40 45 50 55 60 65 70 # shock velocity  km/s

units		metal
boundary        p p p

#plugin		clear
#plugin		load libdeepmd_lmp.so
read_restart	restart.equil_Au
Reading restart file ...
  restart file = 4 May 2022, LAMMPS = 4 May 2022
  restoring atom style atomic from restart
  orthogonal box = (0.023407936 0.023407936 0.023407936) to (40.776592 40.776592 40.776592)
  restoring pair style nvnmd from restart
  4000 atoms
  read_restart CPU = 0.000 seconds

# DEBUG2, add new rcut
pair_style	nvnmd model.pb
pair_coeff	* *

## DEBUG1, add neighbor
neighbor        0.0 bin
neigh_modify    every 1 delay 0 check no

thermo		1000
atom_modify	sort 10000 0.0
mass		1 197

#Settings

timestep	1e-3

# MSST fix

fix             msst all msst z 55 q 36 mu 0.903 tscale 0.02
MSST parameters:
  Shock in z direction
  Cell mass-like parameter qmass (units of mass^2/length^4) = 36
  Shock velocity = 55
  Artificial viscosity (units of mass/length/time) = 0.903
  Initial pressure calculated on first step
  Initial volume calculated on first step
  Initial energy calculated on first step

variable	time equal dt*step
variable	temp equal temp
variable	rho equal density

variable	volume equal vol			# volume
variable	pzz equal pzz				# axial stress
variable	tau equal 0.5*(pzz-0.5*(pxx+pyy))	# shear stress
variable	tauvm equal sqrt(0.5*(pzz-pyy)^2+(pzz-pxx)^2+(pxx-pyy)^2)	# Von Mises Stress
variable	dhug equal f_msst[1]
variable	dray equal f_msst[2]
variable	lgr_vel equal f_msst[3]
variable	lgr_pos equal f_msst[4]
variable	msst equal econserve

thermo_style 	custom step cpu temp ke pe lx ly lz pxx pyy pzz etotal v_dhug v_dray v_lgr_vel v_lgr_pos v_msst
thermo		1000

# pair correlation

compute		rdf all rdf 100 1 1
fix		rdf all ave/time 100 1000 100000 c_rdf[*] file RDF_55.txt mode vector

# Coordinate

compute		keatom all ke/atom
compute		peatom all pe/atom
variable	keatom atom c_keatom
variable	peatom atom c_peatom

dump		imf all custom 10000 Coords_ShockCompression_55.txt id type x y z vx vy vz

run	        200000
Generated 0 of 0 mixed pair_coeff terms from geometric mixing rule
Unused restart file global fix info:
  fix style: npt, fix ID: NPT
  update every 1 steps, delay 0 steps, check no
Fix MSST v0 = 67683.786
Fix MSST p0 = -1196.0362
Fix MSST e0 = -14448.83
Fix MSST initial strain rate of -0.53533268 established by reducing temperature by factor of 0.02
Step          CPU            Temp          KinEng         PotEng           Lx             Ly             Lz            Pxx            Pyy            Pzz           TotEng         v_dhug         v_dray       v_lgr_vel      v_lgr_pos        v_msst
100000   0              294.63327      152.29927     -14604.238      40.753184      40.753184      40.753184     -805.32133     -789.60575     -1244.5564     -14451.938      3.006462      -48.520252      0              0             -14448.83
Averages over the last 101 of 201 rows, steps 200000 to 300000:
Temp KinEng PotEng Lx Ly Lz Pxx Pyy Pzz TotEng v_dhug v_dray v_lgr_vel v_lgr_pos v_msst
3871.68 2001.31 -7589.7 40.7532 40.7532 29.8303 1.57356e+06 1.57282e+06 1.56658e+06 -5588.39 1.92982 327.503 14.7414 -6040.76 -14448.7
Loop time of 904.685 on 4 procs for 200000 steps with 4000 atoms

write_restart	restart_shock.55
System init for write_restart ...
Generated 0 of 0 mixed pair_coeff terms from geometric mixing rule

clear
next		up
jump		in.msst
# Au Equilibrium of msst shock dynamics

# Energy in eV, time in ps, distance in angstroms.

variable	temp equal 300		# equlibrium temperature
variable	press equal 1		# equlibrium pressure
#variable	up index 40 45 50 55 60 65 70 75 # shock velocity  km/s
variable	up index 40 45 50 55 60 65 70 # shock velocity  km/s

units		metal
boundary        p p p

#plugin		clear
#plugin		load libdeepmd_lmp.so
read_restart	restart.equil_Au
Reading restart file ...
  restart file = 4 May 2022, LAMMPS = 4 May 2022
  restoring atom style atomic from restart
  orthogonal box = (0.023407936 0.023407936 0.023407936) to (40.776592 40.776592 40.776592)
  restoring pair style nvnmd from restart
  4000 atoms
  read_restart CPU = 0.000 seconds

# DEBUG2, add new rcut
pair_style	nvnmd model.pb
pair_coeff	* *

## DEBUG1, add neighbor
neighbor        0.0 bin
neigh_modify    every 1 delay 0 check no

thermo		1000
atom_modify	sort 10000 0.0
mass		1 197

#Settings

timestep	1e-3

# MSST fix

fix             msst all msst z 60 q 36 mu 0.903 tscale 0.02
MSST parameters:
  Shock in z direction
  Cell mass-like parameter qmass (units of mass^2/length^4) = 36
  Shock velocity = 60
  Artificial viscosity (units of mass/length/time) = 0.903
  Initial pressure calculated on first step
  Initial volume calculated on first step
  Initial energy calculated on first step

variable	time equal dt*step
variable	temp equal temp
variable	rho equal density

variable	volume equal vol			# volume
variable	pzz equal pzz				# axial stress
variable	tau equal 0.5*(pzz-0.5*(pxx+pyy))	# shear stress
variable	tauvm equal sqrt(0.5*(pzz-pyy)^2+(pzz-pxx)^2+(pxx-pyy)^2)	# Von Mises Stress
variable	dhug equal f_msst[1]
variable	dray equal f_msst[2]
variable	lgr_vel equal f_msst[3]
variable	lgr_pos equal f_msst[4]
variable	msst equal econserve

thermo_style 	custom step cpu temp ke pe lx ly lz pxx pyy pzz etotal v_dhug v_dray v_lgr_vel v_lgr_pos v_msst
thermo		1000

# pair correlation

compute		rdf all rdf 100 1 1
fix		rdf all ave/time 100 1000 100000 c_rdf[*] file RDF_60.txt mode vector

# Coordinate

compute		keatom all ke/atom
compute		peatom all pe/atom
variable	keatom atom c_keatom
variable	peatom atom c_peatom

dump		imf all custom 10000 Coords_ShockCompression_60.txt id type x y z vx vy vz

run	        200000
Generated 0 of 0 mixed pair_coeff terms from geometric mixing rule
Unused restart file global fix info:
  fix style: npt, fix ID: NPT
  update every 1 steps, delay 0 steps, check no
Fix MSST v0 = 67683.786
Fix MSST p0 = -1196.0362
Fix MSST e0 = -14448.83
Fix MSST initial strain rate of -0.53533268 established by reducing temperature by factor of 0.02
Step          CPU            Temp          KinEng         PotEng           Lx             Ly             Lz            Pxx            Pyy            Pzz           TotEng         v_dhug         v_dray       v_lgr_vel      v_lgr_pos        v_msst
100000   0              294.63327      152.29927     -14604.238      40.753184      40.753184      40.753184     -805.32133     -789.60575     -1244.5564     -14451.938      3.006462      -48.520252      0              0             -14448.83
Averages over the last 101 of 201 rows, steps 200000 to 300000:
Temp KinEng PotEng Lx Ly Lz Pxx Pyy Pzz TotEng v_dhug v_dray v_lgr_vel v_lgr_pos v_msst
6077.31 3141.43 -4696.16 40.7532 40.7532 28.6773 2.05881e+06 2.05998e+06 2.06045e+06 -1554.74 -4.61989 -649.362 17.779 -6333.82 -14447.6
Loop time of 917.126 on 4 procs for 200000 steps with 4000 atoms

write_restart	restart_shock.60
System init for write_restart ...
Generated 0 of 0 mixed pair_coeff terms from geometric mixing rule

clear
next		up
jump		in.msst
# Au Equilibrium of msst shock dynamics

# Energy in eV, time in ps, distance in angstroms.

variable	temp equal 300		# equlibrium temperature
variable	press equal 1		# equlibrium pressure
#variable	up index 40 45 50 55 60 65 70 75 # shock velocity  km/s
variable	up index 40 45 50 55 60 65 70 # shock velocity  km/s

units		metal
boundary        p p p

#plugin		clear
#plugin		load libdeepmd_lmp.so
read_restart	restart.equil_Au
Reading restart file ...
  restart file = 4 May 2022, LAMMPS = 4 May 2022
  restoring atom style atomic from restart
  orthogonal box = (0.023407936 0.023407936 0.023407936) to (40.776592 40.776592 40.776592)
  restoring pair style nvnmd from restart
  4000 atoms
  read_restart CPU = 0.000 seconds

# DEBUG2, add new rcut
pair_style	nvnmd model.pb
pair_coeff	* *

## DEBUG1, add neighbor
neighbor        0.0 bin
neigh_modify    every 1 delay 0 check no

thermo		1000
atom_modify	sort 10000 0.0
mass		1 197

#Settings

timestep	1e-3

# MSST fix

fix             msst all msst z 65 q 36 mu 0.903 tscale 0.02
MSST parameters:
  Shock in z direction
  Cell mass-like parameter qmass (units of mass^2/length^4) = 36
  Shock velocity = 65
  Artificial viscosity (units of mass/length/time) = 0.903
  Initial pressure calculated on first step
  Initial volume calculated on first step
  Initial energy calculated on first step

variable	time equal dt*step
variable	temp equal temp
variable	rho equal density

variable	volume equal vol			# volume
variable	pzz equal pzz				# axial stress
variable	tau equal 0.5*(pzz-0.5*(pxx+pyy))	# shear stress
variable	tauvm equal sqrt(0.5*(pzz-pyy)^2+(pzz-pxx)^2+(pxx-pyy)^2)	# Von Mises Stress
variable	dhug equal f_msst[1]
variable	dray equal f_msst[2]
variable	lgr_vel equal f_msst[3]
variable	lgr_pos equal f_msst[4]
variable	msst equal econserve

thermo_style 	custom step cpu temp ke pe lx ly lz pxx pyy pzz etotal v_dhug v_dray v_lgr_vel v_lgr_pos v_msst
thermo		1000

# pair correlation

compute		rdf all rdf 100 1 1
fix		rdf all ave/time 100 1000 100000 c_rdf[*] file RDF_65.txt mode vector

# Coordinate

compute		keatom all ke/atom
compute		peatom all pe/atom
variable	keatom atom c_keatom
variable	peatom atom c_peatom

dump		imf all custom 10000 Coords_ShockCompression_65.txt id type x y z vx vy vz

run	        200000
Generated 0 of 0 mixed pair_coeff terms from geometric mixing rule
Unused restart file global fix info:
  fix style: npt, fix ID: NPT
  update every 1 steps, delay 0 steps, check no
Fix MSST v0 = 67683.786
Fix MSST p0 = -1196.0362
Fix MSST e0 = -14448.83
Fix MSST initial strain rate of -0.53533268 established by reducing temperature by factor of 0.02
Step          CPU            Temp          KinEng         PotEng           Lx             Ly             Lz            Pxx            Pyy            Pzz           TotEng         v_dhug         v_dray       v_lgr_vel      v_lgr_pos        v_msst
100000   0              294.63327      152.29927     -14604.238      40.753184      40.753184      40.753184     -805.32133     -789.60575     -1244.5564     -14451.938      3.006462      -48.520252      0              0             -14448.83
Averages over the last 101 of 201 rows, steps 200000 to 300000:
Temp KinEng PotEng Lx Ly Lz Pxx Pyy Pzz TotEng v_dhug v_dray v_lgr_vel v_lgr_pos v_msst
8845.77 4572.48 -1320.26 40.7532 40.7532 27.6953 2.59659e+06 2.59671e+06 2.61573e+06 3252.22 -5.44257 -219.187 20.8269 -6628.04 -14444.1
Loop time of 935.559 on 4 procs for 200000 steps with 4000 atoms

write_restart	restart_shock.65
System init for write_restart ...
Generated 0 of 0 mixed pair_coeff terms from geometric mixing rule

clear
next		up
jump		in.msst
# Au Equilibrium of msst shock dynamics

# Energy in eV, time in ps, distance in angstroms.

variable	temp equal 300		# equlibrium temperature
variable	press equal 1		# equlibrium pressure
#variable	up index 40 45 50 55 60 65 70 75 # shock velocity  km/s
variable	up index 40 45 50 55 60 65 70 # shock velocity  km/s

units		metal
boundary        p p p

#plugin		clear
#plugin		load libdeepmd_lmp.so
read_restart	restart.equil_Au
Reading restart file ...
  restart file = 4 May 2022, LAMMPS = 4 May 2022
  restoring atom style atomic from restart
  orthogonal box = (0.023407936 0.023407936 0.023407936) to (40.776592 40.776592 40.776592)
  restoring pair style nvnmd from restart
  4000 atoms
  read_restart CPU = 0.000 seconds

# DEBUG2, add new rcut
pair_style	nvnmd model.pb
pair_coeff	* *

## DEBUG1, add neighbor
neighbor        0.0 bin
neigh_modify    every 1 delay 0 check no

thermo		1000
atom_modify	sort 10000 0.0
mass		1 197

#Settings

timestep	1e-3

# MSST fix

fix             msst all msst z 70 q 36 mu 0.903 tscale 0.02
MSST parameters:
  Shock in z direction
  Cell mass-like parameter qmass (units of mass^2/length^4) = 36
  Shock velocity = 70
  Artificial viscosity (units of mass/length/time) = 0.903
  Initial pressure calculated on first step
  Initial volume calculated on first step
  Initial energy calculated on first step

variable	time equal dt*step
variable	temp equal temp
variable	rho equal density

variable	volume equal vol			# volume
variable	pzz equal pzz				# axial stress
variable	tau equal 0.5*(pzz-0.5*(pxx+pyy))	# shear stress
variable	tauvm equal sqrt(0.5*(pzz-pyy)^2+(pzz-pxx)^2+(pxx-pyy)^2)	# Von Mises Stress
variable	dhug equal f_msst[1]
variable	dray equal f_msst[2]
variable	lgr_vel equal f_msst[3]
variable	lgr_pos equal f_msst[4]
variable	msst equal econserve

thermo_style 	custom step cpu temp ke pe lx ly lz pxx pyy pzz etotal v_dhug v_dray v_lgr_vel v_lgr_pos v_msst
thermo		1000

# pair correlation

compute		rdf all rdf 100 1 1
fix		rdf all ave/time 100 1000 100000 c_rdf[*] file RDF_70.txt mode vector

# Coordinate

compute		keatom all ke/atom
compute		peatom all pe/atom
variable	keatom atom c_keatom
variable	peatom atom c_peatom

dump		imf all custom 10000 Coords_ShockCompression_70.txt id type x y z vx vy vz

run	        200000
Generated 0 of 0 mixed pair_coeff terms from geometric mixing rule
Unused restart file global fix info:
  fix style: npt, fix ID: NPT
  update every 1 steps, delay 0 steps, check no
Fix MSST v0 = 67683.786
Fix MSST p0 = -1196.0362
Fix MSST e0 = -14448.83
Fix MSST initial strain rate of -0.53533268 established by reducing temperature by factor of 0.02
Step          CPU            Temp          KinEng         PotEng           Lx             Ly             Lz            Pxx            Pyy            Pzz           TotEng         v_dhug         v_dray       v_lgr_vel      v_lgr_pos        v_msst
100000   0              294.63327      152.29927     -14604.238      40.753184      40.753184      40.753184     -805.32133     -789.60575     -1244.5564     -14451.938      3.006462      -48.520252      0              0             -14448.83
Averages over the last 101 of 201 rows, steps 200000 to 300000:
Temp KinEng PotEng Lx Ly Lz Pxx Pyy Pzz TotEng v_dhug v_dray v_lgr_vel v_lgr_pos v_msst
10195.4 5270.12 2890.93 40.7532 40.7532 27.0521 3.18678e+06 3.18567e+06 3.18483e+06 8161.05 -1.15959 1242.03 23.5338 -6972.36 -14438.1
Loop time of 950.145 on 4 procs for 200000 steps with 4000 atoms

write_restart	restart_shock.70
System init for write_restart ...
Generated 0 of 0 mixed pair_coeff terms from geometric mixing rule

clear
next		up
jump		in.msst
