LAMMPS (4 May 2022)
# bulk water

variable        nsteps equal 200000
variable        rdf_start equal 20000
variable        rdf_every equal 100
variable        rdf_repeat equal (200000-20000)/100

units           metal
boundary        p p p
atom_style      atomic

neighbor        2.0 bin
neigh_modify    every 20 delay 0 check no

read_data       water.lmp
Reading data file ...
  triclinic box = (0 0 0) to (12.4447 12.4447 12.4447) with tilt (0 0 0)
  reading atoms ...
  192 atoms
mass            1 16
mass            2 2

replicate       2 2 2
Replicating atoms ...
  triclinic box = (0 0 0) to (24.8894 24.8894 24.8894) with tilt (0 0 0)
  1536 atoms
  replicate CPU = 0.000 seconds

pair_style      nvnmd model.pb
#pair_style      deepmd model.pb
pair_coeff	    * *

velocity        all create 330.0 12835

fix             1 all nvt temp 330.0 330.0 0.5
timestep        0.0005

# see lammps rdf API at https://lammps.sandia.gov/doc/compute_rdf.html
compute         myRDF all rdf 100 1 1 1 2 2 2
fix             2 all ave/time 100 1800 200000 c_myRDF[*] file tmp.rdf mode vector

thermo_style    custom step pe ke etotal temp press vol
thermo          200

run             200000
Generated 0 of 1 mixed pair_coeff terms from geometric mixing rule
  update every 20 steps, delay 0 steps, check no
Step         PotEng         KinEng         TotEng          Temp          Press          Volume
0   8868.535       65.476726      8934.0118      330            211.29098      15418.541
Averages over the last 501 of 1001 rows, steps 100000 to 200000:
PotEng KinEng TotEng Temp Press Volume
8888.54 65.41 8953.95 329.664 -502.65 15418.5
Loop time of 286.048 on 4 procs for 200000 steps with 1536 atoms
