LAMMPS (4 May 2022)

units           metal
boundary        p p p
atom_style      atomic

neighbor        1.0 bin
neigh_modify    every 10 delay 0 check no

read_data       ./crd.lmp
Reading data file ...
  orthogonal box = (0 0 0) to (12.359372 12.359372 12.359372)
  reading atoms ...
  64 atoms
replicate       2 2 2
Replicating atoms ...
  orthogonal box = (0 0 0) to (24.718744 24.718744 24.718744)
  512 atoms
  replicate CPU = 0.000 seconds

pair_style      deepmd ./model.pb
Summary of lammps deepmd module ...
  >>> Info of deepmd-kit:
  installed to:       /home/mph/WorkSpace/deepmd-kit/smooth/ws-install/mdpu/dp-2.1.0/bin
  source:             v2.1.4-40-g112f3b1-dirty
  source branch:       devel
  source commit:      112f3b1
  source commit at:   2022-09-23 14:42:32 +0800
  surpport model ver.:1.1
  build float prec:   double
  build variant:      cpu
  build with tf inc:  /home/mph/.conda/envs/dp-2.1.0/include;/home/mph/.conda/envs/dp-2.1.0/include
  build with tf lib:  /home/mph/.conda/envs/dp-2.1.0/lib/libtensorflow_cc.so;/home/mph/.conda/envs/dp-2.1.0/lib/libtensorflow_framework.so
  set tf intra_op_parallelism_threads: 0
  set tf inter_op_parallelism_threads: 0
  >>> Info of lammps module:
  use deepmd-kit at:  /home/mph/WorkSpace/deepmd-kit/smooth/ws-install/mdpu/dp-2.1.0/bin
  source:             v2.1.4-39-gbeadfeb-dirty
  source branch:      devel
  source commit:      beadfeb
  source commit at:   2022-09-16 15:20:44 +0800
  build float prec:   double
  build with tf inc:  /home/mph/.conda/envs/dp-2.1.0/include;/home/mph/.conda/envs/dp-2.1.0/include
  build with tf lib:  /home/mph/.conda/envs/dp-2.1.0/lib/libtensorflow_cc.so;/home/mph/.conda/envs/dp-2.1.0/lib/libtensorflow_framework.so
pair_coeff      * *

variable        run0    equal   5000
variable        run1    equal   250
variable        run2    equal   5000
variable        run3    equal   100
variable        run4    equal   1000
variable        run5    equal   10000

variable        temp1   equal   300.0
variable        temp2   equal   1800.0
variable        temp3   equal   1000.0
variable        temp4   equal   600.0

variable        dt          equal       2e-3
variable        tau         equal       0.002*100
variable        showt   equal   100
variable        dumpt   equal   1

velocity        all create 300 123456789
timestep        0.002
thermo_style    custom step pe ke etotal temp press vol
thermo          100

#### s1-crystal-300K
label		crystal
fix             0 all nvt temp 300 300 0.2
dump            1 all custom 1 crystal.dump id type x y z
run             5000

CITE-CITE-CITE-CITE-CITE-CITE-CITE-CITE-CITE-CITE-CITE-CITE-CITE

Your simulation uses code contributions which should be cited:

- USER-DEEPMD package:

@article{Wang_ComputPhysCommun_2018_v228_p178,
  author = {Wang, Han and Zhang, Linfeng and Han, Jiequn and E, Weinan},
  doi = {10.1016/j.cpc.2018.03.016},
  url = {https://doi.org/10.1016/j.cpc.2018.03.016},
  year = 2018,
  month = {jul},
  publisher = {Elsevier {BV}},
  volume = 228,
  journal = {Comput. Phys. Commun.},
  title = {{DeePMD-kit: A deep learning package for many-body potential energy representation and molecular dynamics}},
  pages = {178--184}
}

CITE-CITE-CITE-CITE-CITE-CITE-CITE-CITE-CITE-CITE-CITE-CITE-CITE

Generated 0 of 1 mixed pair_coeff terms from geometric mixing rule
  update every 10 steps, delay 0 steps, check no
Step         PotEng         KinEng         TotEng          Temp          Press          Volume
0  -84417.111      19.81558      -84397.296      300           -35461.35       15103.555
Averages over the last 26 of 51 rows, steps 2500 to 5000:
PotEng KinEng TotEng Temp Press Volume
-84402 19.6275 -84382.3 297.152 -23160.5 15103.6
Loop time of 1694.09 on 8 procs for 5000 steps with 512 atoms

write_restart	s1-crystal.restart
System init for write_restart ...
Generated 0 of 1 mixed pair_coeff terms from geometric mixing rule
unfix           0
undump		1

#### s2-melt-2000K
## increase temperature:
variable	i loop 100
variable        t1    equal   300
label		melt
variable        t1    equal   300+50
variable        t2    equal   350+50
fix             1 all nvt temp 350 350 0.2
run             250
Generated 0 of 1 mixed pair_coeff terms from geometric mixing rule
Step         PotEng         KinEng         TotEng          Temp          Press          Volume
5000  -84402.46       18.139785     -84384.32       274.62912     -23571.741      15103.555
Loop time of 89.6146 on 8 procs for 250 steps with 512 atoms

unfix           1
next i
jump SELF melt
variable        t1    equal   350+50
variable        t2    equal   400+50
fix             1 all nvt temp 400 400 0.2
run             250
Generated 0 of 1 mixed pair_coeff terms from geometric mixing rule
Step         PotEng         KinEng         TotEng          Temp          Press          Volume
5250  -84399.194      21.047114     -84378.147      318.64493     -22301.5        15103.555
Loop time of 87.3343 on 8 procs for 250 steps with 512 atoms

unfix           1
next i
jump SELF melt
variable        t1    equal   400+50
variable        t2    equal   450+50
fix             1 all nvt temp 450 450 0.2
run             250
Generated 0 of 1 mixed pair_coeff terms from geometric mixing rule
Step         PotEng         KinEng         TotEng          Temp          Press          Volume
5500  -84396.142      24.948423     -84371.193      377.7092      -21526.113      15103.555
Loop time of 89.5209 on 8 procs for 250 steps with 512 atoms

unfix           1
next i
jump SELF melt
variable        t1    equal   450+50
variable        t2    equal   500+50
fix             1 all nvt temp 500 500 0.2
run             250
Generated 0 of 1 mixed pair_coeff terms from geometric mixing rule
Step         PotEng         KinEng         TotEng          Temp          Press          Volume
5750  -84392.871      29.018775     -84363.852      439.3327      -20488.766      15103.555
Loop time of 88.0267 on 8 procs for 250 steps with 512 atoms

unfix           1
next i
jump SELF melt
variable        t1    equal   500+50
variable        t2    equal   550+50
fix             1 all nvt temp 550 550 0.2
run             250
Generated 0 of 1 mixed pair_coeff terms from geometric mixing rule
Step         PotEng         KinEng         TotEng          Temp          Press          Volume
6000  -84388.433      32.309879     -84356.123      489.15872     -20268.686      15103.555
Loop time of 89.5208 on 8 procs for 250 steps with 512 atoms

unfix           1
next i
jump SELF melt
variable        t1    equal   550+50
variable        t2    equal   600+50
fix             1 all nvt temp 600 600 0.2
run             250
Generated 0 of 1 mixed pair_coeff terms from geometric mixing rule
Step         PotEng         KinEng         TotEng          Temp          Press          Volume
6250  -84383.412      35.4018       -84348.01       535.96916     -18623.531      15103.555
Loop time of 88.6421 on 8 procs for 250 steps with 512 atoms

unfix           1
next i
jump SELF melt
variable        t1    equal   600+50
variable        t2    equal   650+50
fix             1 all nvt temp 650 650 0.2
run             250
Generated 0 of 1 mixed pair_coeff terms from geometric mixing rule
Step         PotEng         KinEng         TotEng          Temp          Press          Volume
6500  -84378.696      38.567237     -84340.129      583.89262     -18893.908      15103.555
Loop time of 87.638 on 8 procs for 250 steps with 512 atoms

unfix           1
next i
jump SELF melt
variable        t1    equal   650+50
variable        t2    equal   700+50
fix             1 all nvt temp 700 700 0.2
run             250
Generated 0 of 1 mixed pair_coeff terms from geometric mixing rule
Step         PotEng         KinEng         TotEng          Temp          Press          Volume
6750  -84376.181      43.771873     -84332.409      662.68874     -16349.017      15103.555
Loop time of 88.9542 on 8 procs for 250 steps with 512 atoms

unfix           1
next i
jump SELF melt
variable        t1    equal   700+50
variable        t2    equal   750+50
fix             1 all nvt temp 750 750 0.2
run             250
Generated 0 of 1 mixed pair_coeff terms from geometric mixing rule
Step         PotEng         KinEng         TotEng          Temp          Press          Volume
7000  -84372.168      46.782732     -84325.385      708.27194     -15524.6        15103.555
Loop time of 89.0021 on 8 procs for 250 steps with 512 atoms

unfix           1
next i
jump SELF melt
variable        t1    equal   750+50
variable        t2    equal   800+50
fix             1 all nvt temp 800 800 0.2
run             250
Generated 0 of 1 mixed pair_coeff terms from geometric mixing rule
Step         PotEng         KinEng         TotEng          Temp          Press          Volume
7250  -84368.138      49.870662     -84318.267      755.02198     -13787.842      15103.555
Loop time of 89.251 on 8 procs for 250 steps with 512 atoms

unfix           1
next i
jump SELF melt
variable        t1    equal   800+50
variable        t2    equal   850+50
fix             1 all nvt temp 850 850 0.2
run             250
Generated 0 of 1 mixed pair_coeff terms from geometric mixing rule
Step         PotEng         KinEng         TotEng          Temp          Press          Volume
7500  -84365.529      54.889605     -84310.64       831.00678     -11312.223      15103.555
Loop time of 88.8721 on 8 procs for 250 steps with 512 atoms

unfix           1
next i
jump SELF melt
variable        t1    equal   850+50
variable        t2    equal   900+50
fix             1 all nvt temp 900 900 0.2
run             250
Generated 0 of 1 mixed pair_coeff terms from geometric mixing rule
Step         PotEng         KinEng         TotEng          Temp          Press          Volume
7750  -84360.493      56.339696     -84304.153      852.96059     -9382.8487      15103.555
Loop time of 89.3903 on 8 procs for 250 steps with 512 atoms

unfix           1
next i
jump SELF melt
variable        t1    equal   900+50
variable        t2    equal   950+50
fix             1 all nvt temp 950 950 0.2
run             250
Generated 0 of 1 mixed pair_coeff terms from geometric mixing rule
Step         PotEng         KinEng         TotEng          Temp          Press          Volume
8000  -84356.907      59.578609     -84297.328      901.99644     -8592.9719      15103.555
Loop time of 88.0297 on 8 procs for 250 steps with 512 atoms

unfix           1
next i
jump SELF melt
variable        t1    equal   950+50
variable        t2    equal   1000+50
fix             1 all nvt temp 1000 1000 0.2
run             250
Generated 0 of 1 mixed pair_coeff terms from geometric mixing rule
Step         PotEng         KinEng         TotEng          Temp          Press          Volume
8250  -84355.132      65.924855     -84289.207      998.07607     -9992.7445      15103.555
Loop time of 89.9267 on 8 procs for 250 steps with 512 atoms

unfix           1
next i
jump SELF melt
variable        t1    equal   1000+50
variable        t2    equal   1050+50
fix             1 all nvt temp 1050 1050 0.2
run             250
Generated 0 of 1 mixed pair_coeff terms from geometric mixing rule
Step         PotEng         KinEng         TotEng          Temp          Press          Volume
8500  -84352.195      70.286804     -84281.908      1064.1143     -6126.3409      15103.555
Loop time of 87.4347 on 8 procs for 250 steps with 512 atoms

unfix           1
next i
jump SELF melt
variable        t1    equal   1050+50
variable        t2    equal   1100+50
fix             1 all nvt temp 1100 1100 0.2
run             250
Generated 0 of 1 mixed pair_coeff terms from geometric mixing rule
Step         PotEng         KinEng         TotEng          Temp          Press          Volume
8750  -84343.718      70.944814     -84272.773      1074.0763     -3847.0891      15103.555
Loop time of 88.9839 on 8 procs for 250 steps with 512 atoms

unfix           1
next i
jump SELF melt
variable        t1    equal   1100+50
variable        t2    equal   1150+50
fix             1 all nvt temp 1150 1150 0.2
run             250
Generated 0 of 1 mixed pair_coeff terms from geometric mixing rule
Step         PotEng         KinEng         TotEng          Temp          Press          Volume
9000  -84339.467      75.2332       -84264.233      1139.0007     -1429.1852      15103.555
Loop time of 87.6106 on 8 procs for 250 steps with 512 atoms

unfix           1
next i
jump SELF melt
variable        t1    equal   1150+50
variable        t2    equal   1200+50
fix             1 all nvt temp 1200 1200 0.2
run             250
Generated 0 of 1 mixed pair_coeff terms from geometric mixing rule
Step         PotEng         KinEng         TotEng          Temp          Press          Volume
9250  -84334.53       78.646484     -84255.883      1190.6765      143.91427      15103.555
Loop time of 88.8915 on 8 procs for 250 steps with 512 atoms

unfix           1
next i
jump SELF melt
variable        t1    equal   1200+50
variable        t2    equal   1250+50
fix             1 all nvt temp 1250 1250 0.2
run             250
Generated 0 of 1 mixed pair_coeff terms from geometric mixing rule
Step         PotEng         KinEng         TotEng          Temp          Press          Volume
9500  -84331.077      83.594611     -84247.482      1265.5891      1374.3097      15103.555
Loop time of 89.5647 on 8 procs for 250 steps with 512 atoms

unfix           1
next i
jump SELF melt
variable        t1    equal   1250+50
variable        t2    equal   1300+50
fix             1 all nvt temp 1300 1300 0.2
run             250
Generated 0 of 1 mixed pair_coeff terms from geometric mixing rule
Step         PotEng         KinEng         TotEng          Temp          Press          Volume
9750  -84332.517      78.180402     -84254.337      1183.6202     -2277.3034      15103.555
Loop time of 87.7105 on 8 procs for 250 steps with 512 atoms

unfix           1
next i
jump SELF melt
variable        t1    equal   1300+50
variable        t2    equal   1350+50
fix             1 all nvt temp 1350 1350 0.2
run             250
Generated 0 of 1 mixed pair_coeff terms from geometric mixing rule
Step         PotEng         KinEng         TotEng          Temp          Press          Volume
10000  -84323.193      80.879858     -84242.314      1224.4889      2885.6434      15103.555
Loop time of 88.6503 on 8 procs for 250 steps with 512 atoms

unfix           1
next i
jump SELF melt
variable        t1    equal   1350+50
variable        t2    equal   1400+50
fix             1 all nvt temp 1400 1400 0.2
run             250
Generated 0 of 1 mixed pair_coeff terms from geometric mixing rule
Step         PotEng         KinEng         TotEng          Temp          Press          Volume
10250  -84314.379      85.133896     -84229.245      1288.8933      3133.6841      15103.555
Loop time of 89.0563 on 8 procs for 250 steps with 512 atoms

unfix           1
next i
jump SELF melt
variable        t1    equal   1400+50
variable        t2    equal   1450+50
fix             1 all nvt temp 1450 1450 0.2
run             250
Generated 0 of 1 mixed pair_coeff terms from geometric mixing rule
Step         PotEng         KinEng         TotEng          Temp          Press          Volume
10500  -84310.417      93.898585     -84216.518      1421.5872      5608.6095      15103.555
Loop time of 89.2499 on 8 procs for 250 steps with 512 atoms

unfix           1
next i
jump SELF melt
variable        t1    equal   1450+50
variable        t2    equal   1500+50
fix             1 all nvt temp 1500 1500 0.2
run             250
Generated 0 of 1 mixed pair_coeff terms from geometric mixing rule
Step         PotEng         KinEng         TotEng          Temp          Press          Volume
10750  -84299.923      96.373109     -84203.55       1459.0505      4750.5648      15103.555
Loop time of 89.9719 on 8 procs for 250 steps with 512 atoms

unfix           1
next i
jump SELF melt
variable        t1    equal   1500+50
variable        t2    equal   1550+50
fix             1 all nvt temp 1550 1550 0.2
run             250
Generated 0 of 1 mixed pair_coeff terms from geometric mixing rule
Step         PotEng         KinEng         TotEng          Temp          Press          Volume
11000  -84280.415      92.48935      -84187.926      1400.2519      11375.818      15103.555
Loop time of 89.2053 on 8 procs for 250 steps with 512 atoms

unfix           1
next i
jump SELF melt
variable        t1    equal   1550+50
variable        t2    equal   1600+50
fix             1 all nvt temp 1600 1600 0.2
run             250
Generated 0 of 1 mixed pair_coeff terms from geometric mixing rule
Step         PotEng         KinEng         TotEng          Temp          Press          Volume
11250  -84263.373      96.028846     -84167.344      1453.8385      12637.39       15103.555
Loop time of 87.5576 on 8 procs for 250 steps with 512 atoms

unfix           1
next i
jump SELF melt
variable        t1    equal   1600+50
variable        t2    equal   1650+50
fix             1 all nvt temp 1650 1650 0.2
run             250
Generated 0 of 1 mixed pair_coeff terms from geometric mixing rule
Step         PotEng         KinEng         TotEng          Temp          Press          Volume
11500  -84246.578      100.00754     -84146.57       1514.0744      11178.9        15103.555
Loop time of 88.4156 on 8 procs for 250 steps with 512 atoms

unfix           1
next i
jump SELF melt
variable        t1    equal   1650+50
variable        t2    equal   1700+50
fix             1 all nvt temp 1700 1700 0.2
run             250
Generated 0 of 1 mixed pair_coeff terms from geometric mixing rule
Step         PotEng         KinEng         TotEng          Temp          Press          Volume
11750  -84231.196      106.15803     -84125.038      1607.1903      13814.624      15103.555
Loop time of 88.7341 on 8 procs for 250 steps with 512 atoms

unfix           1
next i
jump SELF melt
variable        t1    equal   1700+50
variable        t2    equal   1750+50
fix             1 all nvt temp 1750 1750 0.2
run             250
Generated 0 of 1 mixed pair_coeff terms from geometric mixing rule
Step         PotEng         KinEng         TotEng          Temp          Press          Volume
12000  -84220.681      113.51882     -84107.162      1718.6298      10782.539      15103.555
Loop time of 90.1688 on 8 procs for 250 steps with 512 atoms

unfix           1
jump SELF liquid
fix             2 all nvt temp 1800 1800 0.2
dump            1 all custom 1 liquid.dump id type x y z
run             5000
Generated 0 of 1 mixed pair_coeff terms from geometric mixing rule
Step         PotEng         KinEng         TotEng          Temp          Press          Volume
12250  -84207.677      113.26218     -84094.415      1714.7443      16748.116      15103.555
Averages over the last 26 of 52 rows, steps 14800 to 17250:
PotEng KinEng TotEng Temp Press Volume
-84203.4 118.388 -84085 1792.34 15858.9 15103.6
Loop time of 1674.56 on 8 procs for 5000 steps with 512 atoms

write_restart   s3-liquid.restart
System init for write_restart ...
Generated 0 of 1 mixed pair_coeff terms from geometric mixing rule
unfix           2
undump		1

# decrease temperature (above melting point):
variable        i loop 100
variable        t1    equal   1800
label           liquid_quench
variable        t1    equal   1800-50
fix             1 all nvt temp 1750 1750 0.2
run             100
Generated 0 of 1 mixed pair_coeff terms from geometric mixing rule
Step         PotEng         KinEng         TotEng          Temp          Press          Volume
17250  -84200.049      114.98887     -84085.06       1740.8858      15007.812      15103.555
Loop time of 36.1682 on 8 procs for 100 steps with 512 atoms

unfix           1
next            i
next i
jump SELF liquid_quench
variable        t1    equal   1750-50
fix             1 all nvt temp 1700 1700 0.2
run             100
Generated 0 of 1 mixed pair_coeff terms from geometric mixing rule
Step         PotEng         KinEng         TotEng          Temp          Press          Volume
17350  -84202.353      119.18307     -84083.17       1804.3842      11228.221      15103.555
Loop time of 35.2646 on 8 procs for 100 steps with 512 atoms

unfix           1
next            i
next i
jump SELF liquid_quench
variable        t1    equal   1700-50
fix             1 all nvt temp 1650 1650 0.2
run             100
Generated 0 of 1 mixed pair_coeff terms from geometric mixing rule
Step         PotEng         KinEng         TotEng          Temp          Press          Volume
17450  -84209.413      119.80186     -84089.611      1813.7525      12510.631      15103.555
Loop time of 35.8706 on 8 procs for 100 steps with 512 atoms

unfix           1
next            i
next i
jump SELF liquid_quench
variable        t1    equal   1650-50
fix             1 all nvt temp 1600 1600 0.2
run             100
Generated 0 of 1 mixed pair_coeff terms from geometric mixing rule
Step         PotEng         KinEng         TotEng          Temp          Press          Volume
17550  -84207.186      110.43226     -84096.753      1671.9005      12218.019      15103.555
Loop time of 35.7011 on 8 procs for 100 steps with 512 atoms

unfix           1
next            i
next i
jump SELF liquid_quench
variable        t1    equal   1600-50
fix             1 all nvt temp 1550 1550 0.2
run             100
Generated 0 of 1 mixed pair_coeff terms from geometric mixing rule
Step         PotEng         KinEng         TotEng          Temp          Press          Volume
17650  -84209.783      107.59918     -84102.184      1629.0088      12151.224      15103.555
Loop time of 35.3474 on 8 procs for 100 steps with 512 atoms

unfix           1
next            i
next i
jump SELF liquid_quench
variable        t1    equal   1550-50
fix             1 all nvt temp 1500 1500 0.2
run             100
Generated 0 of 1 mixed pair_coeff terms from geometric mixing rule
Step         PotEng         KinEng         TotEng          Temp          Press          Volume
17750  -84214.284      104.86458     -84109.419      1587.608       12850.508      15103.555
Loop time of 36.2433 on 8 procs for 100 steps with 512 atoms

unfix           1
next            i
next i
jump SELF liquid_quench
variable        t1    equal   1500-50
fix             1 all nvt temp 1450 1450 0.2
run             100
Generated 0 of 1 mixed pair_coeff terms from geometric mixing rule
Step         PotEng         KinEng         TotEng          Temp          Press          Volume
17850  -84214.645      98.651581     -84115.994      1493.5457      10498.981      15103.555
Loop time of 35.5552 on 8 procs for 100 steps with 512 atoms

unfix           1
next            i
next i
jump SELF liquid_quench
variable        t1    equal   1450-50
fix             1 all nvt temp 1400 1400 0.2
run             100
Generated 0 of 1 mixed pair_coeff terms from geometric mixing rule
Step         PotEng         KinEng         TotEng          Temp          Press          Volume
17950  -84222          100.26059     -84121.739      1517.9054      10963.004      15103.555
Loop time of 35.5768 on 8 procs for 100 steps with 512 atoms

unfix           1
next            i
next i
jump SELF liquid_quench
variable        t1    equal   1400-50
fix             1 all nvt temp 1350 1350 0.2
run             100
Generated 0 of 1 mixed pair_coeff terms from geometric mixing rule
Step         PotEng         KinEng         TotEng          Temp          Press          Volume
18050  -84220.919      94.456857     -84126.462      1430.0392      9621.8276      15103.555
Loop time of 35.9746 on 8 procs for 100 steps with 512 atoms

unfix           1
next            i
next i
jump SELF liquid_quench
variable        t1    equal   1350-50
fix             1 all nvt temp 1300 1300 0.2
run             100
Generated 0 of 1 mixed pair_coeff terms from geometric mixing rule
Loop time of 35.5103 on 8 procs for 100 steps with 512 atoms

unfix           1
next            i
next i
jump SELF liquid_quench
variable        t1    equal   1300-50
fix             1 all nvt temp 1250 1250 0.2
run             100
Generated 0 of 1 mixed pair_coeff terms from geometric mixing rule
Loop time of 35.6694 on 8 procs for 100 steps with 512 atoms

unfix           1
next            i
next i
jump SELF liquid_quench
variable        t1    equal   1250-50
fix             1 all nvt temp 1200 1200 0.2
run             100
Generated 0 of 1 mixed pair_coeff terms from geometric mixing rule
Loop time of 34.4074 on 8 procs for 100 steps with 512 atoms

unfix           1
next            i
next i
jump SELF liquid_quench
variable        t1    equal   1200-50
fix             1 all nvt temp 1150 1150 0.2
run             100
Generated 0 of 1 mixed pair_coeff terms from geometric mixing rule
Loop time of 35.8561 on 8 procs for 100 steps with 512 atoms

unfix           1
next            i
next i
jump SELF liquid_quench
variable        t1    equal   1150-50
fix             1 all nvt temp 1100 1100 0.2
run             100
Generated 0 of 1 mixed pair_coeff terms from geometric mixing rule
Loop time of 35.6614 on 8 procs for 100 steps with 512 atoms

unfix           1
next            i
next i
jump SELF liquid_quench
variable        t1    equal   1100-50
fix             1 all nvt temp 1050 1050 0.2
run             100
Generated 0 of 1 mixed pair_coeff terms from geometric mixing rule
Loop time of 35.6231 on 8 procs for 100 steps with 512 atoms

unfix           1
next            i
next i
jump SELF liquid_quench
variable        t1    equal   1050-50
fix             1 all nvt temp 1000 1000 0.2
run             100
Generated 0 of 1 mixed pair_coeff terms from geometric mixing rule
Loop time of 35.8471 on 8 procs for 100 steps with 512 atoms

unfix           1
next            i
jump SELF quench
variable        i loop 100
variable        t1    equal   1000
label           amorphous_quench
variable        t1    equal   1000-50
fix             1 all nvt temp 950 950 0.2
run             1000
Generated 0 of 1 mixed pair_coeff terms from geometric mixing rule
Loop time of 360.845 on 8 procs for 1000 steps with 512 atoms

unfix           1
next i
jump SELF amorphous_quench
variable        t1    equal   950-50
fix             1 all nvt temp 900 900 0.2
run             1000
Generated 0 of 1 mixed pair_coeff terms from geometric mixing rule
Loop time of 354.509 on 8 procs for 1000 steps with 512 atoms

unfix           1
next i
jump SELF amorphous_quench
variable        t1    equal   900-50
fix             1 all nvt temp 850 850 0.2
run             1000
Generated 0 of 1 mixed pair_coeff terms from geometric mixing rule
Loop time of 355.82 on 8 procs for 1000 steps with 512 atoms

unfix           1
next i
jump SELF amorphous_quench
variable        t1    equal   850-50
fix             1 all nvt temp 800 800 0.2
run             1000
Generated 0 of 1 mixed pair_coeff terms from geometric mixing rule
Loop time of 354.661 on 8 procs for 1000 steps with 512 atoms

unfix           1
next i
jump SELF amorphous_quench
variable        t1    equal   800-50
fix             1 all nvt temp 750 750 0.2
run             1000
Generated 0 of 1 mixed pair_coeff terms from geometric mixing rule
Loop time of 358.095 on 8 procs for 1000 steps with 512 atoms

unfix           1
next i
jump SELF amorphous_quench
variable        t1    equal   750-50
fix             1 all nvt temp 700 700 0.2
run             1000
Generated 0 of 1 mixed pair_coeff terms from geometric mixing rule
Loop time of 355.934 on 8 procs for 1000 steps with 512 atoms

unfix           1
next i
jump SELF amorphous_quench
variable        t1    equal   700-50
fix             1 all nvt temp 650 650 0.2
run             1000
Generated 0 of 1 mixed pair_coeff terms from geometric mixing rule
Loop time of 357.182 on 8 procs for 1000 steps with 512 atoms

unfix           1
next i
jump SELF amorphous_quench
variable        t1    equal   650-50
fix             1 all nvt temp 600 600 0.2
run             1000
Generated 0 of 1 mixed pair_coeff terms from geometric mixing rule
Loop time of 356.354 on 8 procs for 1000 steps with 512 atoms

unfix           1
next i
jump SELF amorphous_quench
variable        t1    equal   600-50
fix             1 all nvt temp 550 550 0.2
run             1000
Generated 0 of 1 mixed pair_coeff terms from geometric mixing rule
Loop time of 355.097 on 8 procs for 1000 steps with 512 atoms

unfix           1
next i
jump SELF amorphous_quench
variable        t1    equal   550-50
fix             1 all nvt temp 500 500 0.2
run             1000
Generated 0 of 1 mixed pair_coeff terms from geometric mixing rule
Loop time of 355.828 on 8 procs for 1000 steps with 512 atoms

unfix           1
next i
jump SELF amorphous_quench
variable        t1    equal   500-50
fix             1 all nvt temp 450 450 0.2
run             1000
Generated 0 of 1 mixed pair_coeff terms from geometric mixing rule
Loop time of 358.254 on 8 procs for 1000 steps with 512 atoms

unfix           1
next i
jump SELF amorphous_quench
variable        t1    equal   450-50
fix             1 all nvt temp 400 400 0.2
run             1000
Generated 0 of 1 mixed pair_coeff terms from geometric mixing rule
Loop time of 359.951 on 8 procs for 1000 steps with 512 atoms

unfix           1
next i
jump SELF amorphous_quench
variable        t1    equal   400-50
fix             1 all nvt temp 350 350 0.2
run             1000
Generated 0 of 1 mixed pair_coeff terms from geometric mixing rule
Loop time of 357.05 on 8 procs for 1000 steps with 512 atoms

unfix           1
next i
jump SELF amorphous_quench
variable        t1    equal   350-50
fix             1 all nvt temp 300 300 0.2
run             1000
Generated 0 of 1 mixed pair_coeff terms from geometric mixing rule
Loop time of 357.253 on 8 procs for 1000 steps with 512 atoms

unfix           1
write_restart   s4-quench.restart
System init for write_restart ...
Generated 0 of 1 mixed pair_coeff terms from geometric mixing rule
jump SELF age
fix             4 all nvt temp 300 300 0.2
dump            1 all custom 1 amorphous.dump id type x y z
run             10000
Generated 0 of 1 mixed pair_coeff terms from geometric mixing rule
Loop time of 3351.11 on 8 procs for 10000 steps with 512 atoms

write_restart   s5-amorphous.restart
System init for write_restart ...
Generated 0 of 1 mixed pair_coeff terms from geometric mixing rule
unfix           4
undump		1

# ##### s4-Amo-600K: to increase temperature up to 600K
#
# thermo_style    custom step pe ke etotal temp press vol
# write_restart   nvt7.restart
# unfix           7
#
#
# #### s8-Amo to crys: stable a time in 600K
#
# thermo_style    custom step pe ke etotal temp press vol
# restart         100000 smc.restart
# write_restart   nvt8.restart
# unfix           8
#
# ##### 600K -> 300K
#
# thermo_style    custom step pe ke etotal temp press vol
# write_restart   nvt9.restart
# unfix           9
#
# ##### 300K -> 300K
#
# thermo_style    custom step pe ke etotal temp press vol
# write_restart   nvt10.restart
# unfix           10
