LAMMPS (4 May 2022)
units 			metal
dimension		3
boundary		p    p    p				# Periodic boundary condition
atom_style		atomic					# Only the default values, coarse-grain liquids, solids, metals
box         	tilt large				# LAMMPS normally requires that no tilt factor can skew the box more than half the distance of the parallel box length, but tilt large allow.

neighbor 0.0 bin
neigh_modify    every 10 delay 0 check no		# Check no, rebuild anyway

read_data   	copper.lmp
Reading data file ...
  triclinic box = (0 0 0) to (117 117 117) with tilt (0 0 0)
  reading atoms ...
  133340 atoms
mass            1 63.54600000

pair_style 		mdpu model.pb
# pair_style 		deepmd model.pb
# pair_style 	deepmd copper1.pb copper2.pb copper3.pb copper4.pb 100 model-devi.out
pair_coeff		* *				# Coefficient of petential function

variable        Ttarget equal 300.0			# Target tempture for annealing and MD

# compute		thermo_pe    all pe			# System potential energy
# compute 		thermo_temp  all temp
compute			mypress all  pressure thermo_temp
compute			myCNA   all cna/atom 3.10215312	# Common neighbor analysis

timestep		0.005  	# unit==psec==10^-12sec
thermo			100  	# 100==0.5psec			# Output frequency
thermo_style    custom step temp fmax fnorm c_thermo_temp c_thermo_pe press c_thermo_press[*] lx ly lz vol	# Box lengths in x,y,z

# no annealing?
# how to annealing though?

delete_atoms 	overlap 1.0 all all
System init for delete_atoms ...
Generated 0 of 0 mixed pair_coeff terms from geometric mixing rule
  update every 10 steps, delay 0 steps, check no
Deleted 567 atoms, new total = 132773

# dump          1 all custom 100 dump.relax id type xs ys zs fx fy fz c_atom_order[*]	# dump command, fx fy fz: forces on atoms
velocity        all create 300 9999 dist gaussian mom yes rot yes
fix             5 all npt temp 300 300 $(100.0*dt) iso 0.0 0.0 $(1000.0*dt)
fix             5 all npt temp 300 300 0.5 iso 0.0 0.0 $(1000.0*dt)
fix             5 all npt temp 300 300 0.5 iso 0.0 0.0 5
run             10000                                                                   # Pdamp = pressure damping parameter (time units)
Generated 0 of 0 mixed pair_coeff terms from geometric mixing rule
  update every 10 steps, delay 0 steps, check no
Step          Temp           Fmax          Fnorm      c_thermo_temp   c_thermo_pe       Press      c_thermo_press[1] c_thermo_press[2] c_thermo_press[3] c_thermo_press[4] c_thermo_press[5] c_thermo_press[6]       Lx             Ly             Lz           Volume
0   300            35.828648      1553.6035      300           -13603.528      68294.77       68792.972      66988.959      69102.377     -564.61086      884.70192     -552.51828      117            117            117            1601613
Averages over the last 51 of 101 rows, steps 5000 to 10000:
Temp Fmax Fnorm c_thermo_temp c_thermo_pe Press c_thermo_press[1] c_thermo_press[2] c_thermo_press[3] c_thermo_press[4] c_thermo_press[5] c_thermo_press[6] Lx Ly Lz Volume
299.976 2.30172 257.439 299.976 -47095.1 -1.09997 282.057 -96.509 -188.848 -106.426 -69.9388 -141.269 117.92 117.92 117.92 1.63969e+06
Loop time of 622.255 on 8 procs for 10000 steps with 132773 atoms

unfix           5

min_style       cg
min_modify      dmax 0.01 norm max
fix             1 all box/relax iso 0.0
minimize        1.000000e-13 1.000000e+3 5000 5000
Generated 0 of 0 mixed pair_coeff terms from geometric mixing rule
Step          Temp           Fmax          Fnorm      c_thermo_temp   c_thermo_pe       Press      c_thermo_press[1] c_thermo_press[2] c_thermo_press[3] c_thermo_press[4] c_thermo_press[5] c_thermo_press[6]       Lx             Ly             Lz           Volume
10000   300.32847      2.3934078      257.79992      300.32847     -47099.096     -72.58849       261.69715     -500.52082      21.058195      14.033652     -137.44793     -52.948369      117.92088      117.92088      117.92088      1639729
Loop time of 1.23652 on 8 procs for 9 steps with 132773 atoms

Minimization stats:
  Stopping criterion = force tolerance
  Energy initial, next-to-last, final =
  Force two-norm initial, final = 10534.576 337.84773
  Force max component initial, final = 10531.421 215.00528
  Final line search alpha, max atom move = 7.2857966e-08 1.5664847e-05
  Iterations, force evaluations = 9 9

unfix           1
fix             1 all box/relax aniso 0.0
minimize        1.000000e-13 2.000000e+2 5000 5000
Generated 0 of 0 mixed pair_coeff terms from geometric mixing rule
Step          Temp           Fmax          Fnorm      c_thermo_temp   c_thermo_pe       Press      c_thermo_press[1] c_thermo_press[2] c_thermo_press[3] c_thermo_press[4] c_thermo_press[5] c_thermo_press[6]       Lx             Ly             Lz           Volume
10009   300.32847      2.4166908      260.60281      300.32847     -47103.938      3296.4177      3633.9837      2863.2662      3392.0031      13.268706     -139.15497     -53.173298      117.81475      117.81475      117.81475      1635305.7
Loop time of 0.466126 on 8 procs for 3 steps with 132773 atoms

Minimization stats:
  Stopping criterion = force tolerance
  Energy initial, next-to-last, final =
  Force two-norm initial, final = 658.27482 332.44855
  Force max component initial, final = 528.01074 158.86239
  Final line search alpha, max atom move = 3.778878e-07 6.003216e-05
  Iterations, force evaluations = 3 3

unfix           1
fix             1 all box/relax tri 0.0
minimize        1.000000e-13 1.000000e+2 5000 5000
Generated 0 of 0 mixed pair_coeff terms from geometric mixing rule
Step          Temp           Fmax          Fnorm      c_thermo_temp   c_thermo_pe       Press      c_thermo_press[1] c_thermo_press[2] c_thermo_press[3] c_thermo_press[4] c_thermo_press[5] c_thermo_press[6]       Lx             Ly             Lz           Volume
10012   300.32847      2.4136677      260.6578       300.32847     -47104.145      3366.7725      3471.9432      3225.1635      3403.2109     -2.8539449     -147.83621     -40.501128      117.83913      117.7794       117.81911      1635214.1
Loop time of 10.3223 on 8 procs for 6 steps with 132773 atoms

Minimization stats:
  Stopping criterion = quadratic factors are zero
  Energy initial, next-to-last, final =
  Force two-norm initial, final = 369.1094 339.82006
  Force max component initial, final = 158.81473 139.74363
  Final line search alpha, max atom move = 1.7061141e-13 2.3841858e-11
  Iterations, force evaluations = 6 78

unfix           1

timestep        0.0005
min_style       quickmin
min_modify      dmax 0.01 norm max
fix             2 all viscous 0.2
minimize        0.0 100 5000 5000
Generated 0 of 0 mixed pair_coeff terms from geometric mixing rule
Step          Temp           Fmax          Fnorm      c_thermo_temp   c_thermo_pe       Press      c_thermo_press[1] c_thermo_press[2] c_thermo_press[3] c_thermo_press[4] c_thermo_press[5] c_thermo_press[6]       Lx             Ly             Lz           Volume
10018   0              2.4133167      260.65736      0             -47104.172     -0.14553381     100.28134     -123.45466      22.736718     -9.8151943     -136.89784     -31.245618      117.84211      117.77571      117.81982      1635214
Loop time of 0.122194 on 8 procs for 1 steps with 132773 atoms

Minimization stats:
  Stopping criterion = force tolerance
  Energy initial, next-to-last, final =
  Force two-norm initial, final = 260.65736 256.69966
  Force max component initial, final = 2.4133167 2.376674
  Final line search alpha, max atom move = 0 0
  Iterations, force evaluations = 1 1

unfix           2

min_style       cg
min_modify      dmax 0.01 norm max
fix             1 all box/relax tri 0.0
minimize        1.000000e-13 5.000000e+1 1000 10000
Generated 0 of 0 mixed pair_coeff terms from geometric mixing rule
Step          Temp           Fmax          Fnorm      c_thermo_temp   c_thermo_pe       Press      c_thermo_press[1] c_thermo_press[2] c_thermo_press[3] c_thermo_press[4] c_thermo_press[5] c_thermo_press[6]       Lx             Ly             Lz           Volume
10019   0.075136673    2.4133167      260.65736      0.075136673   -47104.172      0.69676772     101.12333     -122.61414      23.581107     -9.8124644     -136.89821     -31.24554       117.84211      117.77571      117.81982      1635214
Loop time of 3.1764 on 8 procs for 1 steps with 132773 atoms

Minimization stats:
  Stopping criterion = quadratic factors are zero
  Energy initial, next-to-last, final =
  Force two-norm initial, final = 339.82075 339.82075
  Force max component initial, final = 139.74717 139.74717
  Final line search alpha, max atom move = 1.7060709e-13 2.3841858e-11
  Iterations, force evaluations = 1 24

unfix           1

timestep        0.0005
min_style       quickmin
min_modify      dmax 0.01 norm max
fix             2 all viscous 0.2
minimize        0.0 2.0e+1 10000 10000
Generated 0 of 0 mixed pair_coeff terms from geometric mixing rule
Step          Temp           Fmax          Fnorm      c_thermo_temp   c_thermo_pe       Press      c_thermo_press[1] c_thermo_press[2] c_thermo_press[3] c_thermo_press[4] c_thermo_press[5] c_thermo_press[6]       Lx             Ly             Lz           Volume
10020   0              2.4133167      260.65736      0             -47104.172     -0.14553381     100.28134     -123.45466      22.736718     -9.8151943     -136.89784     -31.245618      117.84211      117.77571      117.81982      1635214
Loop time of 0.115318 on 8 procs for 1 steps with 132773 atoms

Minimization stats:
  Stopping criterion = force tolerance
  Energy initial, next-to-last, final =
  Force two-norm initial, final = 260.65736 256.69966
  Force max component initial, final = 2.4133167 2.376674
  Final line search alpha, max atom move = 0 0
  Iterations, force evaluations = 1 1

unfix           2

min_style       cg
min_modify      dmax 0.01 norm max
fix             1 all box/relax tri 0.0
minimize        1.000000e-13 1.000000e+1 10000 10000
Generated 0 of 0 mixed pair_coeff terms from geometric mixing rule
Step          Temp           Fmax          Fnorm      c_thermo_temp   c_thermo_pe       Press      c_thermo_press[1] c_thermo_press[2] c_thermo_press[3] c_thermo_press[4] c_thermo_press[5] c_thermo_press[6]       Lx             Ly             Lz           Volume
10021   0.075136673    2.4133167      260.65736      0.075136673   -47104.172      0.69676772     101.12333     -122.61414      23.581107     -9.8124644     -136.89821     -31.24554       117.84211      117.77571      117.81982      1635214
Loop time of 3.17127 on 8 procs for 1 steps with 132773 atoms

Minimization stats:
  Stopping criterion = quadratic factors are zero
  Energy initial, next-to-last, final =
  Force two-norm initial, final = 339.82075 339.82075
  Force max component initial, final = 139.74717 139.74717
  Final line search alpha, max atom move = 1.7060709e-13 2.3841858e-11
  Iterations, force evaluations = 1 24

unfix           1

min_style       quickmin
min_modify      dmax 0.01 norm max
fix             2 all viscous 0.1
minimize        0.0 1.0e-0 20000 20000
Generated 0 of 0 mixed pair_coeff terms from geometric mixing rule
Step          Temp           Fmax          Fnorm      c_thermo_temp   c_thermo_pe       Press      c_thermo_press[1] c_thermo_press[2] c_thermo_press[3] c_thermo_press[4] c_thermo_press[5] c_thermo_press[6]       Lx             Ly             Lz           Volume
10022   0              2.4133167      260.65736      0             -47104.172     -0.14553381     100.28134     -123.45466      22.736718     -9.8151943     -136.89784     -31.245618      117.84211      117.77571      117.81982      1635214
Loop time of 5.96312 on 8 procs for 45 steps with 132773 atoms

Minimization stats:
  Stopping criterion = force tolerance
  Energy initial, next-to-last, final =
  Force two-norm initial, final = 260.65736 117.39349
  Force max component initial, final = 2.4133167 0.89832031
  Final line search alpha, max atom move = 0 0
  Iterations, force evaluations = 45 45

unfix           2

min_style       cg
min_modify      dmax 0.01 norm max
fix             1 all box/relax tri 0.0
minimize        1.000000e-13 5.000000e-1 20000 20000
Generated 0 of 0 mixed pair_coeff terms from geometric mixing rule
Step          Temp           Fmax          Fnorm      c_thermo_temp   c_thermo_pe       Press      c_thermo_press[1] c_thermo_press[2] c_thermo_press[3] c_thermo_press[4] c_thermo_press[5] c_thermo_press[6]       Lx             Ly             Lz           Volume
10067   86.596782      1.4112854      184.57176      86.596782     -48948.435     -5638.8039     -5540.2109     -5751.5911     -5624.6097     -7.0791946     -141.57934     -51.364338      117.84211      117.77571      117.81982      1635214
Loop time of 14.5155 on 8 procs for 22 steps with 132773 atoms

Minimization stats:
  Stopping criterion = linesearch alpha is zero
  Energy initial, next-to-last, final =
  Force two-norm initial, final = 11687.671 243.0739
  Force max component initial, final = 6860.1955 98.854687
  Final line search alpha, max atom move = 1.2059043e-13 1.1920929e-11
  Iterations, force evaluations = 22 105

unfix           1

min_style       quickmin
min_modify      dmax 0.01 norm max
fix             2 all viscous 0.2
minimize        0.0 4.0e-1 20000 20000
Generated 0 of 0 mixed pair_coeff terms from geometric mixing rule
Step          Temp           Fmax          Fnorm      c_thermo_temp   c_thermo_pe       Press      c_thermo_press[1] c_thermo_press[2] c_thermo_press[3] c_thermo_press[4] c_thermo_press[5] c_thermo_press[6]       Lx             Ly             Lz           Volume
10089   0              1.4415188      188.51642      0             -48966.654      84.743393      75.579969      97.188424      81.461787     -9.3738672     -29.681258     -0.91455396     117.64687      117.55346      117.61344      1626570
Loop time of 10.3157 on 8 procs for 77 steps with 132773 atoms

Minimization stats:
  Stopping criterion = force tolerance
  Energy initial, next-to-last, final =
  Force two-norm initial, final = 188.51642 47.606919
  Force max component initial, final = 1.4415188 0.3844296
  Final line search alpha, max atom move = 0 0
  Iterations, force evaluations = 77 77

unfix           2

min_style       cg
min_modify      dmax 0.01 norm max
fix             1 all box/relax tri 0.0
minimize        1.000000e-13 2.000000e-1 20000 20000
Generated 0 of 0 mixed pair_coeff terms from geometric mixing rule
Step          Temp           Fmax          Fnorm      c_thermo_temp   c_thermo_pe       Press      c_thermo_press[1] c_thermo_press[2] c_thermo_press[3] c_thermo_press[4] c_thermo_press[5] c_thermo_press[6]       Lx             Ly             Lz           Volume
10166   22.320872      0.94453239     115.79602      22.320872     -50576.886     -5415.5393     -5422.4236     -5397.7801     -5426.4141     -8.9841114     -36.506975     -26.233985      117.64687      117.55346      117.61344      1626570
Loop time of 8.65086 on 8 procs for 19 steps with 132773 atoms

Minimization stats:
  Stopping criterion = quadratic factors are zero
  Energy initial, next-to-last, final =
  Force two-norm initial, final = 9965.9462 182.3707
  Force max component initial, final = 5764.6559 91.15403
  Final line search alpha, max atom move = 2.0924458e-12 1.9073486e-10
  Iterations, force evaluations = 19 64

unfix           1

timestep        0.0005
min_style       quickmin
min_modify      dmax 0.01 norm max
fix             2 all viscous 0.2
minimize        0.0 1.0e-1 40000 40000
Generated 0 of 0 mixed pair_coeff terms from geometric mixing rule
Step          Temp           Fmax          Fnorm      c_thermo_temp   c_thermo_pe       Press      c_thermo_press[1] c_thermo_press[2] c_thermo_press[3] c_thermo_press[4] c_thermo_press[5] c_thermo_press[6]       Lx             Ly             Lz           Volume
10185   0              0.95987701     117.74852      0             -50588.938     -77.484507     -89.578906     -52.828479     -90.046137     -0.96847464     1.0432724      0.47334059     117.47813      117.38353      117.44437      1619557.5
Averages over the last 9 of 17 rows, steps 10900 to 11671:
Temp Fmax Fnorm c_thermo_temp c_thermo_pe Press c_thermo_press[1] c_thermo_press[2] c_thermo_press[3] c_thermo_press[4] c_thermo_press[5] c_thermo_press[6] Lx Ly Lz Volume
0.115095 0.227025 4.88216 0.115095 -52591.2 -6454.08 -6476.99 -6393.22 -6492.04 -6.27026 13.9159 -24.3351 117.478 117.384 117.444 1.61956e+06
Loop time of 200.861 on 8 procs for 1486 steps with 132773 atoms

Minimization stats:
  Stopping criterion = force tolerance
  Energy initial, next-to-last, final =
  Force two-norm initial, final = 117.74852 3.3807994
  Force max component initial, final = 0.95987701 0.097449994
  Final line search alpha, max atom move = 0 0
  Iterations, force evaluations = 1486 1486

unfix           2

min_style       cg
min_modify      dmax 0.01 norm max
fix             1 all box/relax tri 0.0
minimize        1.000000e-13 1.000000e-1 40000 40000
Generated 0 of 0 mixed pair_coeff terms from geometric mixing rule
Step          Temp           Fmax          Fnorm      c_thermo_temp   c_thermo_pe       Press      c_thermo_press[1] c_thermo_press[2] c_thermo_press[3] c_thermo_press[4] c_thermo_press[5] c_thermo_press[6]       Lx             Ly             Lz           Volume
11671   0.050230347    0.13555717     6.5886623      0.050230347   -52645.622     -6565.3281     -6587.2256     -6500.6835     -6608.0754     -7.2397385      15.497961     -24.149404      117.47813      117.38353      117.44437      1619557.5
Loop time of 12.0703 on 8 procs for 21 steps with 132773 atoms

Minimization stats:
  Stopping criterion = linesearch alpha is zero
  Energy initial, next-to-last, final =
  Force two-norm initial, final = 11496.169 12.456529
  Force max component initial, final = 6680.3363 7.4592375
  Final line search alpha, max atom move = 5.1140579e-11 3.8146973e-10
  Iterations, force evaluations = 21 88

unfix           1

min_style       quickmin
min_modify      dmax 0.01 norm max
fix             2 all viscous 0.2
minimize        0.0 5.0e-2 40000 40000
Generated 0 of 0 mixed pair_coeff terms from geometric mixing rule
Step          Temp           Fmax          Fnorm      c_thermo_temp   c_thermo_pe       Press      c_thermo_press[1] c_thermo_press[2] c_thermo_press[3] c_thermo_press[4] c_thermo_press[5] c_thermo_press[6]       Lx             Ly             Lz           Volume
11692   0              0.13945198     6.7963613      0             -52671.03      -2.1391884     -1.5936897     -7.4045629      2.5806873      0.66585921     3.783876      -5.3483377      117.27767      117.19303      117.2419       1611387.5
Averages over the last 14 of 27 rows, steps 12900 to 14108:
Temp Fmax Fnorm c_thermo_temp c_thermo_pe Press c_thermo_press[1] c_thermo_press[2] c_thermo_press[3] c_thermo_press[4] c_thermo_press[5] c_thermo_press[6] Lx Ly Lz Volume
0.00909539 0.0528139 1.53439 0.00909539 -52732.6 -154.534 -143.309 -131.031 -189.26 -12.0666 15.8028 -8.55897 117.278 117.193 117.242 1.61139e+06
Loop time of 327.886 on 8 procs for 2416 steps with 132773 atoms

Minimization stats:
  Stopping criterion = force tolerance
  Energy initial, next-to-last, final =
  Force two-norm initial, final = 6.7963613 1.2865642
  Force max component initial, final = 0.13945198 0.041216885
  Final line search alpha, max atom move = 0 0
  Iterations, force evaluations = 2416 2416

unfix           2

min_style       cg
min_modify      dmax 0.01 norm max
fix             1 all box/relax tri 0.0
minimize        1.000000e-13 2.000000e-2 40000 40000
Generated 0 of 0 mixed pair_coeff terms from geometric mixing rule
Step          Temp           Fmax          Fnorm      c_thermo_temp   c_thermo_pe       Press      c_thermo_press[1] c_thermo_press[2] c_thermo_press[3] c_thermo_press[4] c_thermo_press[5] c_thermo_press[6]       Lx             Ly             Lz           Volume
14108   0.0061855169   0.077606201    2.4121862      0.0061855169  -52739.894     -166.35481     -151.44618     -136.92815     -210.69009     -15.459122      18.894261     -8.3655292      117.27767      117.19303      117.2419       1611387.5
Loop time of 5.48219 on 8 procs for 1 steps with 132773 atoms

Minimization stats:
  Stopping criterion = quadratic factors are zero
  Energy initial, next-to-last, final =
  Force two-norm initial, final = 296.34294 296.34294
  Force max component initial, final = 211.97155 211.97155
  Final line search alpha, max atom move = 8.9981351e-13 1.9073486e-10
  Iterations, force evaluations = 1 40

unfix           1

min_style       quickmin
min_modify      dmax 0.01 norm max
fix             2 all viscous 0.2
minimize        0.0 1.0e-2 50000 50000
Generated 0 of 0 mixed pair_coeff terms from geometric mixing rule
Step          Temp           Fmax          Fnorm      c_thermo_temp   c_thermo_pe       Press      c_thermo_press[1] c_thermo_press[2] c_thermo_press[3] c_thermo_press[4] c_thermo_press[5] c_thermo_press[6]       Lx             Ly             Lz           Volume
14109   0              0.077606201    2.4121862      0             -52739.894     -166.42517     -151.51929     -136.99635     -210.75988     -15.459006      18.894047     -8.3652929      117.27767      117.19303      117.2419       1611387.5
Averages over the last 251 of 502 rows, steps 39200 to 64109:
Temp Fmax Fnorm c_thermo_temp c_thermo_pe Press c_thermo_press[1] c_thermo_press[2] c_thermo_press[3] c_thermo_press[4] c_thermo_press[5] c_thermo_press[6] Lx Ly Lz Volume
2.97678e-05 0.0371083 0.314248 2.97678e-05 -52772.4 -182.84 -120.29 -107.992 -320.237 -50.0974 24.522 -0.366388 117.278 117.193 117.242 1.61139e+06
Loop time of 6796.29 on 8 procs for 50000 steps with 132773 atoms

Minimization stats:
  Stopping criterion = max iterations
  Energy initial, next-to-last, final =
  Force two-norm initial, final = 2.4121862 0.28111513
  Force max component initial, final = 0.077606201 0.028169219
  Final line search alpha, max atom move = 0 0
  Iterations, force evaluations = 50000 50000

unfix           2

min_style       cg
min_modify      dmax 0.01 norm max
fix             1 all box/relax tri 0.0
minimize        1.000000e-13 1.000000e-2 50000 50000
Generated 0 of 0 mixed pair_coeff terms from geometric mixing rule
Step          Temp           Fmax          Fnorm      c_thermo_temp   c_thermo_pe       Press      c_thermo_press[1] c_thermo_press[2] c_thermo_press[3] c_thermo_press[4] c_thermo_press[5] c_thermo_press[6]       Lx             Ly             Lz           Volume
64109   1.5101611e-05  0.033788681    0.33365494     1.5101611e-05 -52773.411     -183.04679     -120.33962     -104.40328     -324.39747     -54.930624      23.648442     -1.8050095      117.27767      117.19303      117.2419       1611387.5
Loop time of 9.98836 on 8 procs for 2 steps with 132773 atoms

Minimization stats:
  Stopping criterion = quadratic factors are zero
  Energy initial, next-to-last, final =
  Force two-norm initial, final = 368.43962 368.43738
  Force max component initial, final = 326.26263 326.25822
  Final line search alpha, max atom move = 5.846132e-13 1.9073486e-10
  Iterations, force evaluations = 2 73

unfix           1

min_style       quickmin
min_modify      dmax 0.01 norm max
fix             2 all viscous 0.2
minimize        0.0 1.0e-2 50000 50000
Generated 0 of 0 mixed pair_coeff terms from geometric mixing rule
Step          Temp           Fmax          Fnorm      c_thermo_temp   c_thermo_pe       Press      c_thermo_press[1] c_thermo_press[2] c_thermo_press[3] c_thermo_press[4] c_thermo_press[5] c_thermo_press[6]       Lx             Ly             Lz           Volume
64111   0              0.033788681    0.33366597     0             -52773.411     -183.04651     -120.35273     -104.39352     -324.39327     -54.934896      23.642816     -1.7966283      117.27767      117.19303      117.2419       1611387.5
Averages over the last 251 of 502 rows, steps 89200 to 114111:
Temp Fmax Fnorm c_thermo_temp c_thermo_pe Press c_thermo_press[1] c_thermo_press[2] c_thermo_press[3] c_thermo_press[4] c_thermo_press[5] c_thermo_press[6] Lx Ly Lz Volume
3.66961e-06 0.0245626 0.218169 3.66961e-06 -52774.9 -181.063 -118.382 -100.102 -324.704 -65.2616 21.4802 -5.16163 117.278 117.193 117.242 1.61139e+06
Loop time of 6800.28 on 8 procs for 50000 steps with 132773 atoms

Minimization stats:
  Stopping criterion = max iterations
  Energy initial, next-to-last, final =
  Force two-norm initial, final = 0.33366597 0.20448388
  Force max component initial, final = 0.033788681 0.025360893
  Final line search alpha, max atom move = 0 0
  Iterations, force evaluations = 50000 50000

unfix           2

timestep        0.005
fix             5 all npt temp 300 300 $(100.0*dt) iso 0.0 0.0 $(1000.0*dt)
fix             5 all npt temp 300 300 0.5 iso 0.0 0.0 $(1000.0*dt)
fix             5 all npt temp 300 300 0.5 iso 0.0 0.0 5
run             100000                                                                   # Pdamp = pressure damping parameter (time units)
Generated 0 of 0 mixed pair_coeff terms from geometric mixing rule
Step          Temp           Fmax          Fnorm      c_thermo_temp   c_thermo_pe       Press      c_thermo_press[1] c_thermo_press[2] c_thermo_press[3] c_thermo_press[4] c_thermo_press[5] c_thermo_press[6]       Lx             Ly             Lz           Volume
114111   2.1919856e-06  0.028011322    0.22294214     2.1919856e-06 -52775.29      -181.30947     -118.48686     -100.16438     -325.27717     -67.721434      21.192051     -5.3254444      117.27767      117.19303      117.2419       1611387.5
Averages over the last 501 of 1002 rows, steps 164200 to 214111:
Temp Fmax Fnorm c_thermo_temp c_thermo_pe Press c_thermo_press[1] c_thermo_press[2] c_thermo_press[3] c_thermo_press[4] c_thermo_press[5] c_thermo_press[6] Lx Ly Lz Volume
299.97 2.32618 257.514 299.97 -47296.4 2.83123 125.39 -41.2307 -75.6656 -134.57 138.267 -225.958 117.936 117.85 117.9 1.63866e+06
Loop time of 6274.94 on 8 procs for 100000 steps with 132773 atoms

unfix           5

# What is a drag?
# In some cases (e.g. for solids) the pressure (volume) and/or temperature of the system can oscillate undesirably when a Nose/Hoover barostat and thermostat is applied.
# Typically a value between 0.2 to 2.0 is sufficient to damp oscillations after a few periods.
# Note that use of the drag keyword will interfere with energy conservation and will also change the distribution of positions and velocities so that they do not correspond to the nominal NVT# , NPT, or NPH ensembles.
# drag 0.1 ~ 2.0 is suitable

# dt = timestep size (time units)
# fix 1 all nvt temp 300.0 300.0 $(100.0*dt)
# A good choice for many models is a Pdamp of around 1000 timesteps

variable		L equal lz
variable		L0 equal 117.900027990341
variable		strain equal (v_L-v_L0)/v_L0	# define strain
variable                truestrain equal ln(1+v_strain)
variable 		pzz equal c_mypress[3]/10000	# stress. units, 1 GPa=1000 MPa, 1 bar=0.1 MPa. so 1 GPa = 10000 bar.
variable		pzzsq equal v_pzz*v_pzz

fix				strainstress all ave/time 1 100 100  v_strain v_truestrain v_pzz v_pzzsq  file strainstress.log
fix				9 all deform 1 z erate 0.0005  remap x	# L(t) = L0 (1 + erate*dt)
fix             10 all npt temp 300 300 $(100.0*dt) x 0.0 0.0 $(1000.0*dt) y 0.0 0.0 $(1000.0*dt) couple xy
fix             10 all npt temp 300 300 0.5 x 0.0 0.0 $(1000.0*dt) y 0.0 0.0 $(1000.0*dt) couple xy
fix             10 all npt temp 300 300 0.5 x 0.0 0.0 5 y 0.0 0.0 $(1000.0*dt) couple xy
fix             10 all npt temp 300 300 0.5 x 0.0 0.0 5 y 0.0 0.0 5 couple xy
fix				11 all momentum 20 linear 1 1 1
dump            1 all custom 4000 copper.dump id type x y z c_myCNA
run				52000
Generated 0 of 0 mixed pair_coeff terms from geometric mixing rule
Step          Temp           Fmax          Fnorm      c_thermo_temp   c_thermo_pe       Press      c_thermo_press[1] c_thermo_press[2] c_thermo_press[3] c_thermo_press[4] c_thermo_press[5] c_thermo_press[6]       Lx             Ly             Lz           Volume
214111   300.89746      2.2896824      258.01423      300.89746     -47306.646     -28.792021      178.45315     -173.67982     -91.149389     -97.019297      105.50608     -281.81383      117.93604      117.8509       117.90003      1638677.1
Averages over the last 261 of 522 rows, steps 240200 to 266111:
Temp Fmax Fnorm c_thermo_temp c_thermo_pe Press c_thermo_press[1] c_thermo_press[2] c_thermo_press[3] c_thermo_press[4] c_thermo_press[5] c_thermo_press[6] Lx Ly Lz Volume
299.988 2.31278 254.303 299.988 -46688 -6110.6 754.839 -730.24 -18356.4 -672.535 26.3981 47.0229 112.929 112.848 129.421 1.64896e+06
Loop time of 3264.69 on 8 procs for 52000 steps with 132773 atoms

unfix 			strainstress
unfix           10
unfix			11

write_restart	restart.npt.21
System init for write_restart ...
Generated 0 of 0 mixed pair_coeff terms from geometric mixing rule
