LAMMPS (4 May 2022)
units 			metal
dimension		3
boundary		p    p    p				# Periodic boundary condition
atom_style		atomic					# Only the default values, coarse-grain liquids, solids, metals
box         	tilt large				# LAMMPS normally requires that no tilt factor can skew the box more than half the distance of the parallel box length, but tilt large allow.

neighbor 0.0 bin
neigh_modify    every 10 delay 0 check no		# Check no, rebuild anyway

read_data   	copper.lmp
Reading data file ...
  triclinic box = (0 0 0) to (117 117 117) with tilt (0 0 0)
  reading atoms ...
  133344 atoms
mass            1 63.54600000

pair_style 		mdpu model.pb
# pair_style 		deepmd model.pb
# pair_style 	deepmd copper1.pb copper2.pb copper3.pb copper4.pb 100 model-devi.out
pair_coeff		* *				# Coefficient of petential function

variable        Ttarget equal 300.0			# Target tempture for annealing and MD

# compute		thermo_pe    all pe			# System potential energy
# compute 		thermo_temp  all temp
compute			mypress all  pressure thermo_temp
compute			myCNA   all cna/atom 3.10215312	# Common neighbor analysis

timestep		0.005  	# unit==psec==10^-12sec
thermo			100  	# 100==0.5psec			# Output frequency
thermo_style    custom step temp fmax fnorm c_thermo_temp c_thermo_pe press c_thermo_press[*] lx ly lz vol	# Box lengths in x,y,z

# no annealing?
# how to annealing though?

delete_atoms 	overlap 1.0 all all
System init for delete_atoms ...
Generated 0 of 0 mixed pair_coeff terms from geometric mixing rule
  update every 10 steps, delay 0 steps, check no
Deleted 591 atoms, new total = 132753

# dump          1 all custom 100 dump.relax id type xs ys zs fx fy fz c_atom_order[*]	# dump command, fx fy fz: forces on atoms
velocity        all create 300 9999 dist gaussian mom yes rot yes
fix             5 all npt temp 300 300 $(100.0*dt) iso 0.0 0.0 $(1000.0*dt)
fix             5 all npt temp 300 300 0.5 iso 0.0 0.0 $(1000.0*dt)
fix             5 all npt temp 300 300 0.5 iso 0.0 0.0 5
run             10000                                                                   # Pdamp = pressure damping parameter (time units)
Generated 0 of 0 mixed pair_coeff terms from geometric mixing rule
  update every 10 steps, delay 0 steps, check no
Step          Temp           Fmax          Fnorm      c_thermo_temp   c_thermo_pe       Press      c_thermo_press[1] c_thermo_press[2] c_thermo_press[3] c_thermo_press[4] c_thermo_press[5] c_thermo_press[6]       Lx             Ly             Lz           Volume
0   300            35.73456       1544.1975      300           -13923.854      67016.204      67714.98       66232.326      67101.306      1077.5181     -568.14375      378.9721       117            117            117            1601613
Averages over the last 51 of 101 rows, steps 5000 to 10000:
Temp Fmax Fnorm c_thermo_temp c_thermo_pe Press c_thermo_press[1] c_thermo_press[2] c_thermo_press[3] c_thermo_press[4] c_thermo_press[5] c_thermo_press[6] Lx Ly Lz Volume
300.028 2.29646 257.441 300.028 -47138.6 -9.36238 -302.131 -71.4866 345.531 -153.216 -278.299 308.617 117.907 117.907 117.907 1.63917e+06
Loop time of 619.087 on 8 procs for 10000 steps with 132753 atoms

unfix           5

min_style       cg
min_modify      dmax 0.01 norm max
fix             1 all box/relax iso 0.0
minimize        1.000000e-13 1.000000e+3 5000 5000
Generated 0 of 0 mixed pair_coeff terms from geometric mixing rule
Step          Temp           Fmax          Fnorm      c_thermo_temp   c_thermo_pe       Press      c_thermo_press[1] c_thermo_press[2] c_thermo_press[3] c_thermo_press[4] c_thermo_press[5] c_thermo_press[6]       Lx             Ly             Lz           Volume
10000   300.38744      2.4739952      257.8258       300.38744     -47151.162      28.74846      -232.53593      67.793376      250.98793     -257.78809     -367.68562      272.48568      117.90451      117.90451      117.90451      1639046.5
Loop time of 1.34668 on 8 procs for 9 steps with 132753 atoms

Minimization stats:
  Stopping criterion = force tolerance
  Energy initial, next-to-last, final =
  Force two-norm initial, final = 10224.044 268.39367
  Force max component initial, final = 10220.792 64.134999
  Final line search alpha, max atom move = 9.4739137e-08 6.0760945e-06
  Iterations, force evaluations = 9 10

unfix           1
fix             1 all box/relax aniso 0.0
minimize        1.000000e-13 2.000000e+2 5000 5000
Generated 0 of 0 mixed pair_coeff terms from geometric mixing rule
Step          Temp           Fmax          Fnorm      c_thermo_temp   c_thermo_pe       Press      c_thermo_press[1] c_thermo_press[2] c_thermo_press[3] c_thermo_press[4] c_thermo_press[5] c_thermo_press[6]       Lx             Ly             Lz           Volume
10009   300.38744      2.4996834      260.61824      300.38744     -47156.011      3389.0301      3123.791       3431.5216      3611.7776     -261.23062     -370.44223      274.04741      117.79877      117.79877      117.79877      1634640.4
Loop time of 0.17971 on 8 procs for 1 steps with 132753 atoms

Minimization stats:
  Stopping criterion = force tolerance
  Energy initial, next-to-last, final =
  Force two-norm initial, final = 450.20078 339.19422
  Force max component initial, final = 263.50625 177.71077
  Final line search alpha, max atom move = 3.7949763e-07 6.7440817e-05
  Iterations, force evaluations = 1 1

unfix           1
fix             1 all box/relax tri 0.0
minimize        1.000000e-13 1.000000e+2 5000 5000
Generated 0 of 0 mixed pair_coeff terms from geometric mixing rule
Step          Temp           Fmax          Fnorm      c_thermo_temp   c_thermo_pe       Press      c_thermo_press[1] c_thermo_press[2] c_thermo_press[3] c_thermo_press[4] c_thermo_press[5] c_thermo_press[6]       Lx             Ly             Lz           Volume
10010   300.38744      2.4989166      260.59281      300.38744     -47156.085      3358.1925      3207.822       3370.7622      3495.9932     -260.30717     -368.50088      271.478        117.78699      117.80267      117.8095       1634680.2
Loop time of 13.2458 on 8 procs for 7 steps with 132753 atoms

Minimization stats:
  Stopping criterion = quadratic factors are zero
  Energy initial, next-to-last, final =
  Force two-norm initial, final = 635.13316 569.60707
  Force max component initial, final = 381.73608 337.99463
  Final line search alpha, max atom move = 2.8215664e-13 9.5367429e-11
  Iterations, force evaluations = 7 102

unfix           1

timestep        0.0005
min_style       quickmin
min_modify      dmax 0.01 norm max
fix             2 all viscous 0.2
minimize        0.0 100 5000 5000
Generated 0 of 0 mixed pair_coeff terms from geometric mixing rule
Step          Temp           Fmax          Fnorm      c_thermo_temp   c_thermo_pe       Press      c_thermo_press[1] c_thermo_press[2] c_thermo_press[3] c_thermo_press[4] c_thermo_press[5] c_thermo_press[6]       Lx             Ly             Lz           Volume
10017   0              2.4988213      260.59758      0             -47156.144     -3.6479216     -132.33431      23.340144      98.050403     -226.28645     -331.34682      240.51134      117.78301      117.80328      117.81229      1634672.1
Loop time of 0.111086 on 8 procs for 1 steps with 132753 atoms

Minimization stats:
  Stopping criterion = force tolerance
  Energy initial, next-to-last, final =
  Force two-norm initial, final = 260.59758 256.64079
  Force max component initial, final = 2.4988213 2.4608803
  Final line search alpha, max atom move = 0 0
  Iterations, force evaluations = 1 1

unfix           2

min_style       cg
min_modify      dmax 0.01 norm max
fix             1 all box/relax tri 0.0
minimize        1.000000e-13 5.000000e+1 1000 10000
Generated 0 of 0 mixed pair_coeff terms from geometric mixing rule
Step          Temp           Fmax          Fnorm      c_thermo_temp   c_thermo_pe       Press      c_thermo_press[1] c_thermo_press[2] c_thermo_press[3] c_thermo_press[4] c_thermo_press[5] c_thermo_press[6]       Lx             Ly             Lz           Volume
10018   0.075113529    2.4988213      260.59758      0.075113529   -47156.144     -2.8057272     -131.49035      24.18153       98.891638     -226.28385     -331.34643      240.51412      117.78301      117.80328      117.81229      1634672.1
Loop time of 2.85933 on 8 procs for 1 steps with 132753 atoms

Minimization stats:
  Stopping criterion = quadratic factors are zero
  Energy initial, next-to-last, final =
  Force two-norm initial, final = 569.59703 569.59703
  Force max component initial, final = 337.98323 337.98323
  Final line search alpha, max atom move = 2.8216616e-13 9.5367432e-11
  Iterations, force evaluations = 1 22

unfix           1

timestep        0.0005
min_style       quickmin
min_modify      dmax 0.01 norm max
fix             2 all viscous 0.2
minimize        0.0 2.0e+1 10000 10000
Generated 0 of 0 mixed pair_coeff terms from geometric mixing rule
Step          Temp           Fmax          Fnorm      c_thermo_temp   c_thermo_pe       Press      c_thermo_press[1] c_thermo_press[2] c_thermo_press[3] c_thermo_press[4] c_thermo_press[5] c_thermo_press[6]       Lx             Ly             Lz           Volume
10019   0              2.4988213      260.59758      0             -47156.144     -3.6479216     -132.33431      23.340144      98.050403     -226.28645     -331.34682      240.51134      117.78301      117.80328      117.81229      1634672.1
Loop time of 0.0996388 on 8 procs for 1 steps with 132753 atoms

Minimization stats:
  Stopping criterion = force tolerance
  Energy initial, next-to-last, final =
  Force two-norm initial, final = 260.59758 256.64079
  Force max component initial, final = 2.4988213 2.4608803
  Final line search alpha, max atom move = 0 0
  Iterations, force evaluations = 1 1

unfix           2

min_style       cg
min_modify      dmax 0.01 norm max
fix             1 all box/relax tri 0.0
minimize        1.000000e-13 1.000000e+1 10000 10000
Generated 0 of 0 mixed pair_coeff terms from geometric mixing rule
Step          Temp           Fmax          Fnorm      c_thermo_temp   c_thermo_pe       Press      c_thermo_press[1] c_thermo_press[2] c_thermo_press[3] c_thermo_press[4] c_thermo_press[5] c_thermo_press[6]       Lx             Ly             Lz           Volume
10020   0.075113529    2.4988213      260.59758      0.075113529   -47156.144     -2.8057272     -131.49035      24.18153       98.891638     -226.28385     -331.34643      240.51412      117.78301      117.80328      117.81229      1634672.1
Loop time of 2.88103 on 8 procs for 1 steps with 132753 atoms

Minimization stats:
  Stopping criterion = quadratic factors are zero
  Energy initial, next-to-last, final =
  Force two-norm initial, final = 569.59703 569.59703
  Force max component initial, final = 337.98323 337.98323
  Final line search alpha, max atom move = 2.8216616e-13 9.5367432e-11
  Iterations, force evaluations = 1 22

unfix           1

min_style       quickmin
min_modify      dmax 0.01 norm max
fix             2 all viscous 0.1
minimize        0.0 1.0e-0 20000 20000
Generated 0 of 0 mixed pair_coeff terms from geometric mixing rule
Step          Temp           Fmax          Fnorm      c_thermo_temp   c_thermo_pe       Press      c_thermo_press[1] c_thermo_press[2] c_thermo_press[3] c_thermo_press[4] c_thermo_press[5] c_thermo_press[6]       Lx             Ly             Lz           Volume
10021   0              2.4988213      260.59758      0             -47156.144     -3.6479216     -132.33431      23.340144      98.050403     -226.28645     -331.34682      240.51134      117.78301      117.80328      117.81229      1634672.1
Loop time of 5.84226 on 8 procs for 45 steps with 132753 atoms

Minimization stats:
  Stopping criterion = force tolerance
  Energy initial, next-to-last, final =
  Force two-norm initial, final = 260.59758 117.29009
  Force max component initial, final = 2.4988213 0.95176636
  Final line search alpha, max atom move = 0 0
  Iterations, force evaluations = 45 45

unfix           2

min_style       cg
min_modify      dmax 0.01 norm max
fix             1 all box/relax tri 0.0
minimize        1.000000e-13 5.000000e-1 20000 20000
Generated 0 of 0 mixed pair_coeff terms from geometric mixing rule
Step          Temp           Fmax          Fnorm      c_thermo_temp   c_thermo_pe       Press      c_thermo_press[1] c_thermo_press[2] c_thermo_press[3] c_thermo_press[4] c_thermo_press[5] c_thermo_press[6]       Lx             Ly             Lz           Volume
10066   86.529929      1.4998646      184.43735      86.529929     -48999.472     -5642.5161     -5801.5177     -5593.322      -5532.7085     -230.66229     -317.39593      253.18493      117.78301      117.80328      117.81229      1634672.1
Loop time of 13.433 on 8 procs for 28 steps with 132753 atoms

Minimization stats:
  Stopping criterion = quadratic factors are zero
  Energy initial, next-to-last, final =
  Force two-norm initial, final = 11698.912 312.48021
  Force max component initial, final = 6911.7915 145.47587
  Final line search alpha, max atom move = 1.31111e-12 1.9073486e-10
  Iterations, force evaluations = 28 102

unfix           1

min_style       quickmin
min_modify      dmax 0.01 norm max
fix             2 all viscous 0.2
minimize        0.0 4.0e-1 20000 20000
Generated 0 of 0 mixed pair_coeff terms from geometric mixing rule
Step          Temp           Fmax          Fnorm      c_thermo_temp   c_thermo_pe       Press      c_thermo_press[1] c_thermo_press[2] c_thermo_press[3] c_thermo_press[4] c_thermo_press[5] c_thermo_press[6]       Lx             Ly             Lz           Volume
10094   0              1.5315361      188.39476      0             -49017.861      138.89178      134.78981      138.78091      143.10463      30.524512      26.769127     -24.02412       117.55787      117.59946      117.61305      1625970
Loop time of 10.0702 on 8 procs for 77 steps with 132753 atoms

Minimization stats:
  Stopping criterion = force tolerance
  Energy initial, next-to-last, final =
  Force two-norm initial, final = 188.39476 47.611185
  Force max component initial, final = 1.5315361 0.34400267
  Final line search alpha, max atom move = 0 0
  Iterations, force evaluations = 77 77

unfix           2

min_style       cg
min_modify      dmax 0.01 norm max
fix             1 all box/relax tri 0.0
minimize        1.000000e-13 2.000000e-1 20000 20000
Generated 0 of 0 mixed pair_coeff terms from geometric mixing rule
Step          Temp           Fmax          Fnorm      c_thermo_temp   c_thermo_pe       Press      c_thermo_press[1] c_thermo_press[2] c_thermo_press[3] c_thermo_press[4] c_thermo_press[5] c_thermo_press[6]       Lx             Ly             Lz           Volume
10171   22.314487      0.83540154     115.78505      22.314487     -50627.183     -5359.3224     -5398.1799     -5341.2538     -5338.5335      9.992469       26.292441      0.88102923     117.55787      117.59946      117.61305      1625970
Loop time of 12.5735 on 8 procs for 19 steps with 132753 atoms

Minimization stats:
  Stopping criterion = quadratic factors are zero
  Energy initial, next-to-last, final =
  Force two-norm initial, final = 9863.4551 1087.0698
  Force max component initial, final = 5734.3758 647.29133
  Final line search alpha, max atom move = 1.4733309e-13 9.5367432e-11
  Iterations, force evaluations = 19 94

unfix           1

timestep        0.0005
min_style       quickmin
min_modify      dmax 0.01 norm max
fix             2 all viscous 0.2
minimize        0.0 1.0e-1 40000 40000
Generated 0 of 0 mixed pair_coeff terms from geometric mixing rule
Step          Temp           Fmax          Fnorm      c_thermo_temp   c_thermo_pe       Press      c_thermo_press[1] c_thermo_press[2] c_thermo_press[3] c_thermo_press[4] c_thermo_press[5] c_thermo_press[6]       Lx             Ly             Lz           Volume
10190   0              0.85261345     117.53063      0             -50638.58      -616.05033     -639.45305     -603.45983     -605.2381       6.5912956      20.16736      -1.333858       117.40476      117.44913      117.4627       1619703.4
Averages over the last 9 of 17 rows, steps 10900 to 11699:
Temp Fmax Fnorm c_thermo_temp c_thermo_pe Press c_thermo_press[1] c_thermo_press[2] c_thermo_press[3] c_thermo_press[4] c_thermo_press[5] c_thermo_press[6] Lx Ly Lz Volume
0.11611 0.178307 4.8947 0.11611 -52653.1 -6979.35 -7073.67 -6997.03 -6867.34 -28.4409 30.4622 67.9674 117.405 117.449 117.463 1.6197e+06
Loop time of 203.231 on 8 procs for 1509 steps with 132753 atoms

Minimization stats:
  Stopping criterion = force tolerance
  Energy initial, next-to-last, final =
  Force two-norm initial, final = 117.53063 3.3226575
  Force max component initial, final = 0.85261345 0.072768693
  Final line search alpha, max atom move = 0 0
  Iterations, force evaluations = 1509 1509

unfix           2

min_style       cg
min_modify      dmax 0.01 norm max
fix             1 all box/relax tri 0.0
minimize        1.000000e-13 1.000000e-1 40000 40000
Generated 0 of 0 mixed pair_coeff terms from geometric mixing rule
Step          Temp           Fmax          Fnorm      c_thermo_temp   c_thermo_pe       Press      c_thermo_press[1] c_thermo_press[2] c_thermo_press[3] c_thermo_press[4] c_thermo_press[5] c_thermo_press[6]       Lx             Ly             Lz           Volume
11699   0.048513425    0.13681984     6.4752507      0.048513425   -52709.039     -7081.4587     -7184.6693     -7103.3412     -6956.3657     -25.829475      30.715281      81.00874       117.40476      117.44913      117.4627       1619703.4
Loop time of 9.94992 on 8 procs for 20 steps with 132753 atoms

Minimization stats:
  Stopping criterion = linesearch alpha is zero
  Energy initial, next-to-last, final =
  Force two-norm initial, final = 12402.026 77.485672
  Force max component initial, final = 7263.8101 46.468565
  Final line search alpha, max atom move = 2.0522999e-12 9.5367432e-11
  Iterations, force evaluations = 20 73

unfix           1

min_style       quickmin
min_modify      dmax 0.01 norm max
fix             2 all viscous 0.2
minimize        0.0 5.0e-2 40000 40000
Generated 0 of 0 mixed pair_coeff terms from geometric mixing rule
Step          Temp           Fmax          Fnorm      c_thermo_temp   c_thermo_pe       Press      c_thermo_press[1] c_thermo_press[2] c_thermo_press[3] c_thermo_press[4] c_thermo_press[5] c_thermo_press[6]       Lx             Ly             Lz           Volume
11719   0              0.13720703     6.6964169      0             -52737.555     -11.806744     -46.130614     -18.871107      29.581487     -14.841906      19.954467      43.555421      117.18372      117.23389      117.25774      1610875.4
Averages over the last 48 of 95 rows, steps 16400 to 21039:
Temp Fmax Fnorm c_thermo_temp c_thermo_pe Press c_thermo_press[1] c_thermo_press[2] c_thermo_press[3] c_thermo_press[4] c_thermo_press[5] c_thermo_press[6] Lx Ly Lz Volume
0.00103227 0.0582024 0.709676 0.00103227 -52821.3 -168.634 -279.523 -194.039 -32.3413 4.41152 11.1676 105.704 117.184 117.234 117.258 1.61088e+06
Loop time of 1261.29 on 8 procs for 9320 steps with 132753 atoms

Minimization stats:
  Stopping criterion = force tolerance
  Energy initial, next-to-last, final =
  Force two-norm initial, final = 6.6964169 0.58021696
  Force max component initial, final = 0.13720703 0.044985587
  Final line search alpha, max atom move = 0 0
  Iterations, force evaluations = 9320 9320

unfix           2

min_style       cg
min_modify      dmax 0.01 norm max
fix             1 all box/relax tri 0.0
minimize        1.000000e-13 2.000000e-2 40000 40000
Generated 0 of 0 mixed pair_coeff terms from geometric mixing rule
Step          Temp           Fmax          Fnorm      c_thermo_temp   c_thermo_pe       Press      c_thermo_press[1] c_thermo_press[2] c_thermo_press[3] c_thermo_press[4] c_thermo_press[5] c_thermo_press[6]       Lx             Ly             Lz           Volume
21039   0.00052373828  0.070627213    0.90542688     0.00052373828 -52824.564     -167.66143     -287.46223     -195.50099     -20.02108       8.2764615      7.2354255      111.29178      117.18372      117.23389      117.25774      1610875.4
Loop time of 9.49049 on 8 procs for 2 steps with 132753 atoms

Minimization stats:
  Stopping criterion = quadratic factors are zero
  Energy initial, next-to-last, final =
  Force two-norm initial, final = 367.72388 367.72077
  Force max component initial, final = 289.02895 289.0272
  Final line search alpha, max atom move = 2.6396804e-12 7.6293945e-10
  Iterations, force evaluations = 2 69

unfix           1

min_style       quickmin
min_modify      dmax 0.01 norm max
fix             2 all viscous 0.2
minimize        0.0 1.0e-2 50000 50000
Generated 0 of 0 mixed pair_coeff terms from geometric mixing rule
Step          Temp           Fmax          Fnorm      c_thermo_temp   c_thermo_pe       Press      c_thermo_press[1] c_thermo_press[2] c_thermo_press[3] c_thermo_press[4] c_thermo_press[5] c_thermo_press[6]       Lx             Ly             Lz           Volume
21041   0              0.070634842    0.90542638     0             -52824.564     -167.66621     -287.46642     -195.5043      -20.027904      8.2753838      7.2359357      111.29077      117.18372      117.23389      117.25774      1610875.4
Averages over the last 251 of 502 rows, steps 46100 to 71041:
Temp Fmax Fnorm c_thermo_temp c_thermo_pe Press c_thermo_press[1] c_thermo_press[2] c_thermo_press[3] c_thermo_press[4] c_thermo_press[5] c_thermo_press[6] Lx Ly Lz Volume
1.05128e-05 0.0268022 0.245489 1.05128e-05 -52832.4 -161.178 -319.529 -190.656 26.6508 18.0194 -10.4332 139.042 117.184 117.234 117.258 1.61088e+06
Loop time of 6798.72 on 8 procs for 50000 steps with 132753 atoms

Minimization stats:
  Stopping criterion = max iterations
  Energy initial, next-to-last, final =
  Force two-norm initial, final = 0.90542638 0.21546744
  Force max component initial, final = 0.070634842 0.016003053
  Final line search alpha, max atom move = 0 0
  Iterations, force evaluations = 50000 50000

unfix           2

min_style       cg
min_modify      dmax 0.01 norm max
fix             1 all box/relax tri 0.0
minimize        1.000000e-13 1.000000e-2 50000 50000
Generated 0 of 0 mixed pair_coeff terms from geometric mixing rule
Step          Temp           Fmax          Fnorm      c_thermo_temp   c_thermo_pe       Press      c_thermo_press[1] c_thermo_press[2] c_thermo_press[3] c_thermo_press[4] c_thermo_press[5] c_thermo_press[6]       Lx             Ly             Lz           Volume
71041   4.6342854e-06  0.018325806    0.24359783     4.6342854e-06 -52833.013     -160.74244     -323.88389     -190.83937      32.495938      18.36611      -12.293445      144.16755      117.18372      117.23389      117.25774      1610875.4
Loop time of 4.04568 on 8 procs for 1 steps with 132753 atoms

Minimization stats:
  Stopping criterion = quadratic factors are zero
  Energy initial, next-to-last, final =
  Force two-norm initial, final = 406.72116 406.72116
  Force max component initial, final = 325.64246 325.64246
  Final line search alpha, max atom move = 5.8571866e-13 1.9073486e-10
  Iterations, force evaluations = 1 29

unfix           1

min_style       quickmin
min_modify      dmax 0.01 norm max
fix             2 all viscous 0.2
minimize        0.0 1.0e-2 50000 50000
Generated 0 of 0 mixed pair_coeff terms from geometric mixing rule
Step          Temp           Fmax          Fnorm      c_thermo_temp   c_thermo_pe       Press      c_thermo_press[1] c_thermo_press[2] c_thermo_press[3] c_thermo_press[4] c_thermo_press[5] c_thermo_press[6]       Lx             Ly             Lz           Volume
71042   0              0.018325806    0.24359783     0             -52833.013     -160.7425      -323.88395     -190.83942      32.495883      18.36611      -12.293441      144.16755      117.18372      117.23389      117.25774      1610875.4
Averages over the last 251 of 502 rows, steps 96100 to 121042:
Temp Fmax Fnorm c_thermo_temp c_thermo_pe Press c_thermo_press[1] c_thermo_press[2] c_thermo_press[3] c_thermo_press[4] c_thermo_press[5] c_thermo_press[6] Lx Ly Lz Volume
1.43829e-06 0.0164394 0.181078 1.43829e-06 -52833.3 -157.519 -326.891 -188.632 42.967 18.5413 -16.5856 152.883 117.184 117.234 117.258 1.61088e+06
Loop time of 6815.42 on 8 procs for 50000 steps with 132753 atoms

Minimization stats:
  Stopping criterion = max iterations
  Energy initial, next-to-last, final =
  Force two-norm initial, final = 0.24359783 0.17640096
  Force max component initial, final = 0.018325806 0.017593402
  Final line search alpha, max atom move = 0 0
  Iterations, force evaluations = 50000 50000

unfix           2

timestep        0.005
fix             5 all npt temp 300 300 $(100.0*dt) iso 0.0 0.0 $(1000.0*dt)
fix             5 all npt temp 300 300 0.5 iso 0.0 0.0 $(1000.0*dt)
fix             5 all npt temp 300 300 0.5 iso 0.0 0.0 5
run             100000                                                                   # Pdamp = pressure damping parameter (time units)
Generated 0 of 0 mixed pair_coeff terms from geometric mixing rule
Step          Temp           Fmax          Fnorm      c_thermo_temp   c_thermo_pe       Press      c_thermo_press[1] c_thermo_press[2] c_thermo_press[3] c_thermo_press[4] c_thermo_press[5] c_thermo_press[6]       Lx             Ly             Lz           Volume
121042   1.1664442e-06  0.019159317    0.18953737     1.1664442e-06 -52833.389     -158.19481     -328.78216     -189.64254      43.840262      18.319623     -17.641101      154.51499      117.18372      117.23389      117.25774      1610875.4
Averages over the last 501 of 1002 rows, steps 171100 to 221042:
Temp Fmax Fnorm c_thermo_temp c_thermo_pe Press c_thermo_press[1] c_thermo_press[2] c_thermo_press[3] c_thermo_press[4] c_thermo_press[5] c_thermo_press[6] Lx Ly Lz Volume
300.003 2.30116 257.497 300.003 -47344.4 2.77269 -137.293 -37.5369 183.148 -228.144 -106.814 58.3721 117.841 117.891 117.915 1.63812e+06
Loop time of 6678.67 on 8 procs for 100000 steps with 132753 atoms

unfix           5

# What is a drag?
# In some cases (e.g. for solids) the pressure (volume) and/or temperature of the system can oscillate undesirably when a Nose/Hoover barostat and thermostat is applied.
# Typically a value between 0.2 to 2.0 is sufficient to damp oscillations after a few periods.
# Note that use of the drag keyword will interfere with energy conservation and will also change the distribution of positions and velocities so that they do not correspond to the nominal NVT# , NPT, or NPH ensembles.
# drag 0.1 ~ 2.0 is suitable

# dt = timestep size (time units)
# fix 1 all nvt temp 300.0 300.0 $(100.0*dt)
# A good choice for many models is a Pdamp of around 1000 timesteps

variable		L equal lz
variable		L0 equal 117.907748818398
variable		strain equal (v_L-v_L0)/v_L0	# define strain
variable                truestrain equal ln(1+v_strain)
variable 		pzz equal c_mypress[3]/10000	# stress. units, 1 GPa=1000 MPa, 1 bar=0.1 MPa. so 1 GPa = 10000 bar.
variable		pzzsq equal v_pzz*v_pzz

fix				strainstress all ave/time 1 100 100  v_strain v_truestrain v_pzz v_pzzsq  file strainstress.log
fix				9 all deform 1 z erate 0.0005  remap x	# L(t) = L0 (1 + erate*dt)
fix             10 all npt temp 300 300 $(100.0*dt) x 0.0 0.0 $(1000.0*dt) y 0.0 0.0 $(1000.0*dt) couple xy
fix             10 all npt temp 300 300 0.5 x 0.0 0.0 $(1000.0*dt) y 0.0 0.0 $(1000.0*dt) couple xy
fix             10 all npt temp 300 300 0.5 x 0.0 0.0 5 y 0.0 0.0 $(1000.0*dt) couple xy
fix             10 all npt temp 300 300 0.5 x 0.0 0.0 5 y 0.0 0.0 5 couple xy
fix				11 all momentum 20 linear 1 1 1
dump            1 all custom 4000 copper.dump id type x y z c_myCNA
run				52000
Generated 0 of 0 mixed pair_coeff terms from geometric mixing rule
Step          Temp           Fmax          Fnorm      c_thermo_temp   c_thermo_pe       Press      c_thermo_press[1] c_thermo_press[2] c_thermo_press[3] c_thermo_press[4] c_thermo_press[5] c_thermo_press[6]       Lx             Ly             Lz           Volume
221042   299.92779      2.2124767      257.52386      299.92779     -47371.956      120.69805      170.55677      51.496698      140.04069     -374.09419     -258.21238      66.045583      117.83331      117.88376      117.90775      1637813.3
Averages over the last 261 of 522 rows, steps 247100 to 273042:
Temp Fmax Fnorm c_thermo_temp c_thermo_pe Press c_thermo_press[1] c_thermo_press[2] c_thermo_press[3] c_thermo_press[4] c_thermo_press[5] c_thermo_press[6] Lx Ly Lz Volume
300.051 2.29475 254.337 300.051 -46747.6 -5906.05 -26.0328 38.6717 -17730.8 14.5077 676.062 -22.907 112.828 112.876 129.421 1.64789e+06
Loop time of 3433.77 on 8 procs for 52000 steps with 132753 atoms

unfix 			strainstress
unfix           10
unfix			11

write_restart	restart.npt.21
System init for write_restart ...
Generated 0 of 0 mixed pair_coeff terms from geometric mixing rule
