LAMMPS (4 May 2022)
units 			metal
dimension		3
boundary		p    p    p				# Periodic boundary condition
atom_style		atomic					# Only the default values, coarse-grain liquids, solids, metals
box         	tilt large				# LAMMPS normally requires that no tilt factor can skew the box more than half the distance of the parallel box length, but tilt large allow.

neighbor 0.0 bin
neigh_modify    every 10 delay 0 check no		# Check no, rebuild anyway

read_data   	copper.lmp
Reading data file ...
  triclinic box = (0 0 0) to (117 117 117) with tilt (0 0 0)
  reading atoms ...
  133333 atoms
mass            1 63.54600000

pair_style 		nvnmd model.pb
# pair_style 		deepmd model.pb
# pair_style 	deepmd copper1.pb copper2.pb copper3.pb copper4.pb 100 model-devi.out
pair_coeff		* *				# Coefficient of petential function

variable        Ttarget equal 300.0			# Target tempture for annealing and MD

# compute		thermo_pe    all pe			# System potential energy
# compute 		thermo_temp  all temp
compute			mypress all  pressure thermo_temp
compute			myCNA   all cna/atom 3.10215312	# Common neighbor analysis

timestep		0.005  	# unit==psec==10^-12sec
thermo			100  	# 100==0.5psec			# Output frequency
thermo_style    custom step temp fmax fnorm c_thermo_temp c_thermo_pe press c_thermo_press[*] lx ly lz vol	# Box lengths in x,y,z

# no annealing?
# how to annealing though?

delete_atoms 	overlap 1.0 all all
System init for delete_atoms ...
Generated 0 of 0 mixed pair_coeff terms from geometric mixing rule
  update every 10 steps, delay 0 steps, check no
Deleted 620 atoms, new total = 132713

# dump          1 all custom 100 dump.relax id type xs ys zs fx fy fz c_atom_order[*]	# dump command, fx fy fz: forces on atoms
velocity        all create 300 9999 dist gaussian mom yes rot yes
fix             5 all npt temp 300 300 $(100.0*dt) iso 0.0 0.0 $(1000.0*dt)
fix             5 all npt temp 300 300 0.5 iso 0.0 0.0 $(1000.0*dt)
fix             5 all npt temp 300 300 0.5 iso 0.0 0.0 5
run             10000                                                                   # Pdamp = pressure damping parameter (time units)
Generated 0 of 0 mixed pair_coeff terms from geometric mixing rule
  update every 10 steps, delay 0 steps, check no
Step          Temp           Fmax          Fnorm      c_thermo_temp   c_thermo_pe       Press      c_thermo_press[1] c_thermo_press[2] c_thermo_press[3] c_thermo_press[4] c_thermo_press[5] c_thermo_press[6]       Lx             Ly             Lz           Volume
0   300            51.471416      1546.9957      300           -14016.226      66945.271      66992.271      67613.409      66230.133     -76.126646     -533.40953     -660.12105      117            117            117            1601613
Averages over the last 51 of 101 rows, steps 5000 to 10000:
Temp Fmax Fnorm c_thermo_temp c_thermo_pe Press c_thermo_press[1] c_thermo_press[2] c_thermo_press[3] c_thermo_press[4] c_thermo_press[5] c_thermo_press[6] Lx Ly Lz Volume
300.052 2.32158 257.3 300.052 -47033.9 -7.67739 -112.035 -181.135 270.138 -422.028 46.7909 -220.437 117.906 117.906 117.906 1.63911e+06
Loop time of 609.808 on 8 procs for 10000 steps with 132713 atoms

unfix           5

min_style       cg
min_modify      dmax 0.01 norm max
fix             1 all box/relax iso 0.0
minimize        1.000000e-13 1.000000e+3 5000 5000
Generated 0 of 0 mixed pair_coeff terms from geometric mixing rule
Step          Temp           Fmax          Fnorm      c_thermo_temp   c_thermo_pe       Press      c_thermo_press[1] c_thermo_press[2] c_thermo_press[3] c_thermo_press[4] c_thermo_press[5] c_thermo_press[6]       Lx             Ly             Lz           Volume
10000   301.23422      2.0996361      257.49092      301.23422     -47057.395     -119.45962     -215.72046     -348.30905      205.65065     -308.54076      59.19195      -210.32672      117.90762      117.90762      117.90762      1639176.1
Loop time of 1.36373 on 8 procs for 9 steps with 132713 atoms

Minimization stats:
  Stopping criterion = force tolerance
  Energy initial, next-to-last, final =
  Force two-norm initial, final = 10704.72 1014.4538
  Force max component initial, final = 10701.623 980.53396
  Final line search alpha, max atom move = 3.2089197e-08 3.1464548e-05
  Iterations, force evaluations = 9 10

unfix           1
fix             1 all box/relax aniso 0.0
minimize        1.000000e-13 2.000000e+2 5000 5000
Generated 0 of 0 mixed pair_coeff terms from geometric mixing rule
Step          Temp           Fmax          Fnorm      c_thermo_temp   c_thermo_pe       Press      c_thermo_press[1] c_thermo_press[2] c_thermo_press[3] c_thermo_press[4] c_thermo_press[5] c_thermo_press[6]       Lx             Ly             Lz           Volume
10009   301.23422      2.1182022      260.13403      301.23422     -47062.565      3055.8189      2958.7566      2823.8337      3384.8663     -310.74178      59.635699     -211.40351      117.8074       117.8074       117.8074       1634999.8
Loop time of 8.94063 on 8 procs for 5 steps with 132713 atoms

Minimization stats:
  Stopping criterion = quadratic factors are zero
  Energy initial, next-to-last, final =
  Force two-norm initial, final = 760.65403 753.02753
  Force max component initial, final = 582.39713 576.18465
  Final line search alpha, max atom move = 3.310308e-13 1.9073486e-10
  Iterations, force evaluations = 5 67

unfix           1
fix             1 all box/relax tri 0.0
minimize        1.000000e-13 1.000000e+2 5000 5000
Generated 0 of 0 mixed pair_coeff terms from geometric mixing rule
Step          Temp           Fmax          Fnorm      c_thermo_temp   c_thermo_pe       Press      c_thermo_press[1] c_thermo_press[2] c_thermo_press[3] c_thermo_press[4] c_thermo_press[5] c_thermo_press[6]       Lx             Ly             Lz           Volume
10014   301.23422      2.1182404      260.13814      301.23422     -47062.57       3060.7964      2964.1051      2829.934       3388.35       -310.72267      59.680009     -211.46853      117.8072       117.80712      117.80741      1634993.3
Loop time of 2.92986 on 8 procs for 1 steps with 132713 atoms

Minimization stats:
  Stopping criterion = quadratic factors are zero
  Energy initial, next-to-last, final =
  Force two-norm initial, final = 852.79045 852.79045
  Force max component initial, final = 576.18328 576.18328
  Final line search alpha, max atom move = 3.3103158e-13 1.9073486e-10
  Iterations, force evaluations = 1 22

unfix           1

timestep        0.0005
min_style       quickmin
min_modify      dmax 0.01 norm max
fix             2 all viscous 0.2
minimize        0.0 100 5000 5000
Generated 0 of 0 mixed pair_coeff terms from geometric mixing rule
Step          Temp           Fmax          Fnorm      c_thermo_temp   c_thermo_pe       Press      c_thermo_press[1] c_thermo_press[2] c_thermo_press[3] c_thermo_press[4] c_thermo_press[5] c_thermo_press[6]       Lx             Ly             Lz           Volume
10015   0              2.1182404      260.13814      0             -47062.57      -315.04683     -400.42609     -564.61843      19.904037     -324.00892      69.018242     -209.9798       117.8072       117.80712      117.80741      1634993.3
Loop time of 0.112587 on 8 procs for 1 steps with 132713 atoms

Minimization stats:
  Stopping criterion = force tolerance
  Energy initial, next-to-last, final =
  Force two-norm initial, final = 260.13814 256.18832
  Force max component initial, final = 2.1182404 2.086078
  Final line search alpha, max atom move = 0 0
  Iterations, force evaluations = 1 1

unfix           2

min_style       cg
min_modify      dmax 0.01 norm max
fix             1 all box/relax tri 0.0
minimize        1.000000e-13 5.000000e+1 1000 10000
Generated 0 of 0 mixed pair_coeff terms from geometric mixing rule
Step          Temp           Fmax          Fnorm      c_thermo_temp   c_thermo_pe       Press      c_thermo_press[1] c_thermo_press[2] c_thermo_press[3] c_thermo_press[4] c_thermo_press[5] c_thermo_press[6]       Lx             Ly             Lz           Volume
10016   0.074871467    2.1182404      260.13814      0.074871467   -47062.57      -314.20776     -399.58536     -563.78088      20.742954     -324.0101       69.020376     -209.9756       117.8072       117.80712      117.80741      1634993.3
Loop time of 2.94695 on 8 procs for 1 steps with 132713 atoms

Minimization stats:
  Stopping criterion = quadratic factors are zero
  Energy initial, next-to-last, final =
  Force two-norm initial, final = 852.79045 852.79045
  Force max component initial, final = 576.18328 576.18328
  Final line search alpha, max atom move = 3.3103158e-13 1.9073486e-10
  Iterations, force evaluations = 1 22

unfix           1

timestep        0.0005
min_style       quickmin
min_modify      dmax 0.01 norm max
fix             2 all viscous 0.2
minimize        0.0 2.0e+1 10000 10000
Generated 0 of 0 mixed pair_coeff terms from geometric mixing rule
Step          Temp           Fmax          Fnorm      c_thermo_temp   c_thermo_pe       Press      c_thermo_press[1] c_thermo_press[2] c_thermo_press[3] c_thermo_press[4] c_thermo_press[5] c_thermo_press[6]       Lx             Ly             Lz           Volume
10017   0              2.1182404      260.13814      0             -47062.57      -315.04683     -400.42609     -564.61843      19.904037     -324.00892      69.018242     -209.9798       117.8072       117.80712      117.80741      1634993.3
Loop time of 0.115394 on 8 procs for 1 steps with 132713 atoms

Minimization stats:
  Stopping criterion = force tolerance
  Energy initial, next-to-last, final =
  Force two-norm initial, final = 260.13814 256.18832
  Force max component initial, final = 2.1182404 2.086078
  Final line search alpha, max atom move = 0 0
  Iterations, force evaluations = 1 1

unfix           2

min_style       cg
min_modify      dmax 0.01 norm max
fix             1 all box/relax tri 0.0
minimize        1.000000e-13 1.000000e+1 10000 10000
Generated 0 of 0 mixed pair_coeff terms from geometric mixing rule
Step          Temp           Fmax          Fnorm      c_thermo_temp   c_thermo_pe       Press      c_thermo_press[1] c_thermo_press[2] c_thermo_press[3] c_thermo_press[4] c_thermo_press[5] c_thermo_press[6]       Lx             Ly             Lz           Volume
10018   0.074871467    2.1182404      260.13814      0.074871467   -47062.57      -314.20776     -399.58536     -563.78088      20.742954     -324.0101       69.020376     -209.9756       117.8072       117.80712      117.80741      1634993.3
Loop time of 2.99876 on 8 procs for 1 steps with 132713 atoms

Minimization stats:
  Stopping criterion = quadratic factors are zero
  Energy initial, next-to-last, final =
  Force two-norm initial, final = 852.79045 852.79045
  Force max component initial, final = 576.18328 576.18328
  Final line search alpha, max atom move = 3.3103158e-13 1.9073486e-10
  Iterations, force evaluations = 1 22

unfix           1

min_style       quickmin
min_modify      dmax 0.01 norm max
fix             2 all viscous 0.1
minimize        0.0 1.0e-0 20000 20000
Generated 0 of 0 mixed pair_coeff terms from geometric mixing rule
Step          Temp           Fmax          Fnorm      c_thermo_temp   c_thermo_pe       Press      c_thermo_press[1] c_thermo_press[2] c_thermo_press[3] c_thermo_press[4] c_thermo_press[5] c_thermo_press[6]       Lx             Ly             Lz           Volume
10019   0              2.1182404      260.13814      0             -47062.57      -315.04683     -400.42609     -564.61843      19.904037     -324.00892      69.018242     -209.9798       117.8072       117.80712      117.80741      1634993.3
Loop time of 5.74027 on 8 procs for 43 steps with 132713 atoms

Minimization stats:
  Stopping criterion = force tolerance
  Energy initial, next-to-last, final =
  Force two-norm initial, final = 260.13814 124.32684
  Force max component initial, final = 2.1182404 0.92268513
  Final line search alpha, max atom move = 0 0
  Iterations, force evaluations = 43 43

unfix           2

min_style       cg
min_modify      dmax 0.01 norm max
fix             1 all box/relax tri 0.0
minimize        1.000000e-13 5.000000e-1 20000 20000
Generated 0 of 0 mixed pair_coeff terms from geometric mixing rule
Step          Temp           Fmax          Fnorm      c_thermo_temp   c_thermo_pe       Press      c_thermo_press[1] c_thermo_press[2] c_thermo_press[3] c_thermo_press[4] c_thermo_press[5] c_thermo_press[6]       Lx             Ly             Lz           Volume
10062   81.5919        1.4066067      189.52028      81.5919       -48777.421     -5549.9051     -5624.3917     -5794.2865     -5231.037      -326.61837      69.126162     -223.66343      117.8072       117.80712      117.80741      1634993.3
Loop time of 8.90256 on 8 procs for 22 steps with 132713 atoms

Minimization stats:
  Stopping criterion = quadratic factors are zero
  Energy initial, next-to-last, final =
  Force two-norm initial, final = 11442.444 333.97134
  Force max component initial, final = 6845.093 178.66563
  Final line search alpha, max atom move = 2.6688801e-13 4.7683716e-11
  Iterations, force evaluations = 22 67

unfix           1

min_style       quickmin
min_modify      dmax 0.01 norm max
fix             2 all viscous 0.2
minimize        0.0 4.0e-1 20000 20000
Generated 0 of 0 mixed pair_coeff terms from geometric mixing rule
Step          Temp           Fmax          Fnorm      c_thermo_temp   c_thermo_pe       Press      c_thermo_press[1] c_thermo_press[2] c_thermo_press[3] c_thermo_press[4] c_thermo_press[5] c_thermo_press[6]       Lx             Ly             Lz           Volume
10084   0              1.4334087      193.42059      0             -48794.835     -34.111024     -62.829602     -108.71921      69.21574      -175.64843      45.825531     -134.7273       117.601        117.58869      117.63167      1626675.2
Loop time of 10.3832 on 8 procs for 78 steps with 132713 atoms

Minimization stats:
  Stopping criterion = force tolerance
  Energy initial, next-to-last, final =
  Force two-norm initial, final = 193.42059 46.640322
  Force max component initial, final = 1.4334087 0.34878768
  Final line search alpha, max atom move = 0 0
  Iterations, force evaluations = 78 78

unfix           2

min_style       cg
min_modify      dmax 0.01 norm max
fix             1 all box/relax tri 0.0
minimize        1.000000e-13 2.000000e-1 20000 20000
Generated 0 of 0 mixed pair_coeff terms from geometric mixing rule
Step          Temp           Fmax          Fnorm      c_thermo_temp   c_thermo_pe       Press      c_thermo_press[1] c_thermo_press[2] c_thermo_press[3] c_thermo_press[4] c_thermo_press[5] c_thermo_press[6]       Lx             Ly             Lz           Volume
10162   23.663812      0.85149765     116.80335      23.663812     -50497.597     -5856.3222     -5873.6591     -5936.0262     -5759.2814     -188.88269      50.706752     -165.61974      117.601        117.58869      117.63167      1626675.2
Loop time of 11.4163 on 8 procs for 20 steps with 132713 atoms

Minimization stats:
  Stopping criterion = quadratic factors are zero
  Energy initial, next-to-last, final =
  Force two-norm initial, final = 10771.884 597.56153
  Force max component initial, final = 6297.8704 359.51105
  Final line search alpha, max atom move = 5.3053965e-13 1.9073486e-10
  Iterations, force evaluations = 20 84

unfix           1

timestep        0.0005
min_style       quickmin
min_modify      dmax 0.01 norm max
fix             2 all viscous 0.2
minimize        0.0 1.0e-1 40000 40000
Generated 0 of 0 mixed pair_coeff terms from geometric mixing rule
Step          Temp           Fmax          Fnorm      c_thermo_temp   c_thermo_pe       Press      c_thermo_press[1] c_thermo_press[2] c_thermo_press[3] c_thermo_press[4] c_thermo_press[5] c_thermo_press[6]       Lx             Ly             Lz           Volume
10182   0              0.8682518      118.8596       0             -50511.537     -316.19311     -325.44731     -355.14613     -267.98588     -126.37809      36.614355     -116.32249      117.42375      117.40781      117.46108      1619373.1
Averages over the last 7 of 14 rows, steps 10800 to 11386:
Temp Fmax Fnorm c_thermo_temp c_thermo_pe Press c_thermo_press[1] c_thermo_press[2] c_thermo_press[3] c_thermo_press[4] c_thermo_press[5] c_thermo_press[6] Lx Ly Lz Volume
0.170963 0.124874 5.95834 0.170963 -52507.7 -6710.37 -6689.94 -6778.07 -6663.1 -150.606 62.3379 -183.586 117.424 117.408 117.461 1.61937e+06
Loop time of 162.035 on 8 procs for 1204 steps with 132713 atoms

Minimization stats:
  Stopping criterion = force tolerance
  Energy initial, next-to-last, final =
  Force two-norm initial, final = 118.8596 4.2475829
  Force max component initial, final = 0.8682518 0.084409473
  Final line search alpha, max atom move = 0 0
  Iterations, force evaluations = 1204 1204

unfix           2

min_style       cg
min_modify      dmax 0.01 norm max
fix             1 all box/relax tri 0.0
minimize        1.000000e-13 1.000000e-1 40000 40000
Generated 0 of 0 mixed pair_coeff terms from geometric mixing rule
Step          Temp           Fmax          Fnorm      c_thermo_temp   c_thermo_pe       Press      c_thermo_press[1] c_thermo_press[2] c_thermo_press[3] c_thermo_press[4] c_thermo_press[5] c_thermo_press[6]       Lx             Ly             Lz           Volume
11386   0.078367155    0.16459084     8.2537522      0.078367155   -52572.827     -6851.0828     -6831.5237     -6915.9663     -6805.7584     -149.46334      65.516189     -190.37415      117.42375      117.40781      117.46108      1619373.1
Loop time of 17.1858 on 8 procs for 23 steps with 132713 atoms

Minimization stats:
  Stopping criterion = linesearch alpha is zero
  Energy initial, next-to-last, final =
  Force two-norm initial, final = 11998.303 49.426503
  Force max component initial, final = 6991.0998 27.902283
  Final line search alpha, max atom move = 3.4702422e-12 9.682768e-11
  Iterations, force evaluations = 23 125

unfix           1

min_style       quickmin
min_modify      dmax 0.01 norm max
fix             2 all viscous 0.2
minimize        0.0 5.0e-2 40000 40000
Generated 0 of 0 mixed pair_coeff terms from geometric mixing rule
Step          Temp           Fmax          Fnorm      c_thermo_temp   c_thermo_pe       Press      c_thermo_press[1] c_thermo_press[2] c_thermo_press[3] c_thermo_press[4] c_thermo_press[5] c_thermo_press[6]       Lx             Ly             Lz           Volume
11409   0              0.16678429     8.4813098      0             -52603.857      27.112684      26.762074      26.870827      27.70515      -4.972197       3.9942495     -9.5415305      117.21842      117.19248      117.25876      1610797.3
Averages over the last 21 of 41 rows, steps 13400 to 15306:
Temp Fmax Fnorm c_thermo_temp c_thermo_pe Press c_thermo_press[1] c_thermo_press[2] c_thermo_press[3] c_thermo_press[4] c_thermo_press[5] c_thermo_press[6] Lx Ly Lz Volume
0.00531037 0.045258 1.25932 0.00531037 -52703.7 -193.193 -200.964 -188.71 -189.905 -51.9212 17.9628 -74.6098 117.218 117.192 117.259 1.6108e+06
Loop time of 530.757 on 8 procs for 3897 steps with 132713 atoms

Minimization stats:
  Stopping criterion = force tolerance
  Energy initial, next-to-last, final =
  Force two-norm initial, final = 8.4813098 1.0338328
  Force max component initial, final = 0.16678429 0.039794903
  Final line search alpha, max atom move = 0 0
  Iterations, force evaluations = 3897 3897

unfix           2

min_style       cg
min_modify      dmax 0.01 norm max
fix             1 all box/relax tri 0.0
minimize        1.000000e-13 2.000000e-2 40000 40000
Generated 0 of 0 mixed pair_coeff terms from geometric mixing rule
Step          Temp           Fmax          Fnorm      c_thermo_temp   c_thermo_pe       Press      c_thermo_press[1] c_thermo_press[2] c_thermo_press[3] c_thermo_press[4] c_thermo_press[5] c_thermo_press[6]       Lx             Ly             Lz           Volume
15306   0.0031166442   0.070837021    1.8316508      0.0031166442  -52710.653     -198.06435     -208.83897     -192.18736     -193.16673     -61.689553      17.060815     -82.235653      117.21842      117.19248      117.25876      1610797.3
Loop time of 5.49151 on 8 procs for 1 steps with 132713 atoms

Minimization stats:
  Stopping criterion = quadratic factors are zero
  Energy initial, next-to-last, final =
  Force two-norm initial, final = 360.76465 360.76465
  Force max component initial, final = 209.99892 209.99892
  Final line search alpha, max atom move = 9.0826591e-13 1.9073486e-10
  Iterations, force evaluations = 1 40

unfix           1

min_style       quickmin
min_modify      dmax 0.01 norm max
fix             2 all viscous 0.2
minimize        0.0 1.0e-2 50000 50000
Generated 0 of 0 mixed pair_coeff terms from geometric mixing rule
Step          Temp           Fmax          Fnorm      c_thermo_temp   c_thermo_pe       Press      c_thermo_press[1] c_thermo_press[2] c_thermo_press[3] c_thermo_press[4] c_thermo_press[5] c_thermo_press[6]       Lx             Ly             Lz           Volume
15307   0              0.070837021    1.8316508      0             -52710.653     -198.0998      -208.87503     -192.22195     -193.20244     -61.689892      17.061242     -82.235169      117.21842      117.19248      117.25876      1610797.3
Averages over the last 251 of 502 rows, steps 40400 to 65307:
Temp Fmax Fnorm c_thermo_temp c_thermo_pe Press c_thermo_press[1] c_thermo_press[2] c_thermo_press[3] c_thermo_press[4] c_thermo_press[5] c_thermo_press[6] Lx Ly Lz Volume
1.76448e-05 0.0305972 0.290241 1.76448e-05 -52735.2 -195.843 -210.115 -184.136 -193.278 -150.9 6.79968 -92.382 117.218 117.192 117.259 1.6108e+06
Loop time of 6791.2 on 8 procs for 50000 steps with 132713 atoms

Minimization stats:
  Stopping criterion = max iterations
  Energy initial, next-to-last, final =
  Force two-norm initial, final = 1.8316508 0.25976666
  Force max component initial, final = 0.070837021 0.030887616
  Final line search alpha, max atom move = 0 0
  Iterations, force evaluations = 50000 50000

unfix           2

min_style       cg
min_modify      dmax 0.01 norm max
fix             1 all box/relax tri 0.0
minimize        1.000000e-13 1.000000e-2 50000 50000
Generated 0 of 0 mixed pair_coeff terms from geometric mixing rule
Step          Temp           Fmax          Fnorm      c_thermo_temp   c_thermo_pe       Press      c_thermo_press[1] c_thermo_press[2] c_thermo_press[3] c_thermo_press[4] c_thermo_press[5] c_thermo_press[6]       Lx             Ly             Lz           Volume
65307   6.9812123e-06  0.035394669    0.29376415     6.9812123e-06 -52735.87      -194.43347     -207.15665     -183.34362     -192.80013     -156.7631       4.795859      -88.452215      117.21842      117.19248      117.25876      1610797.3
Loop time of 5.78575 on 8 procs for 1 steps with 132713 atoms

Minimization stats:
  Stopping criterion = quadratic factors are zero
  Energy initial, next-to-last, final =
  Force two-norm initial, final = 384.31895 384.31895
  Force max component initial, final = 208.27138 208.27138
  Final line search alpha, max atom move = 4.5789985e-13 9.5367432e-11
  Iterations, force evaluations = 1 42

unfix           1

min_style       quickmin
min_modify      dmax 0.01 norm max
fix             2 all viscous 0.2
minimize        0.0 1.0e-2 50000 50000
Generated 0 of 0 mixed pair_coeff terms from geometric mixing rule
Step          Temp           Fmax          Fnorm      c_thermo_temp   c_thermo_pe       Press      c_thermo_press[1] c_thermo_press[2] c_thermo_press[3] c_thermo_press[4] c_thermo_press[5] c_thermo_press[6]       Lx             Ly             Lz           Volume
65308   0              0.035394669    0.29376415     0             -52735.87      -194.43355     -207.15673     -183.3437      -192.80021     -156.76311      4.7958616     -88.452218      117.21842      117.19248      117.25876      1610797.3
Averages over the last 251 of 502 rows, steps 90400 to 115308:
Temp Fmax Fnorm c_thermo_temp c_thermo_pe Press c_thermo_press[1] c_thermo_press[2] c_thermo_press[3] c_thermo_press[4] c_thermo_press[5] c_thermo_press[6] Lx Ly Lz Volume
2.78015e-06 0.0229562 0.200777 2.78015e-06 -52737.1 -192.799 -204.193 -181.451 -192.754 -164.98 1.49905 -81.7595 117.218 117.192 117.259 1.6108e+06
Loop time of 6775.08 on 8 procs for 50000 steps with 132713 atoms

Minimization stats:
  Stopping criterion = max iterations
  Energy initial, next-to-last, final =
  Force two-norm initial, final = 0.29376415 0.19436241
  Force max component initial, final = 0.035394669 0.038129851
  Final line search alpha, max atom move = 0 0
  Iterations, force evaluations = 50000 50000

unfix           2

timestep        0.005
fix             5 all npt temp 300 300 $(100.0*dt) iso 0.0 0.0 $(1000.0*dt)
fix             5 all npt temp 300 300 0.5 iso 0.0 0.0 $(1000.0*dt)
fix             5 all npt temp 300 300 0.5 iso 0.0 0.0 5
run             100000                                                                   # Pdamp = pressure damping parameter (time units)
Generated 0 of 0 mixed pair_coeff terms from geometric mixing rule
Step          Temp           Fmax          Fnorm      c_thermo_temp   c_thermo_pe       Press      c_thermo_press[1] c_thermo_press[2] c_thermo_press[3] c_thermo_press[4] c_thermo_press[5] c_thermo_press[6]       Lx             Ly             Lz           Volume
115308   1.9319436e-06  0.042047501    0.2116132      1.9319436e-06 -52737.293     -192.54712     -203.80142     -181.08421     -192.75575     -166.71621      0.36449908    -80.299017      117.21842      117.19248      117.25876      1610797.3
Averages over the last 501 of 1002 rows, steps 165400 to 215308:
Temp Fmax Fnorm c_thermo_temp c_thermo_pe Press c_thermo_press[1] c_thermo_press[2] c_thermo_press[3] c_thermo_press[4] c_thermo_press[5] c_thermo_press[6] Lx Ly Lz Volume
299.991 2.3075 257.455 299.991 -47236.6 0.226128 -236.018 219.255 17.4408 -42.876 -35.6167 31.854 117.876 117.85 117.916 1.63805e+06
Loop time of 5917.31 on 8 procs for 100000 steps with 132713 atoms

unfix           5

# What is a drag?
# In some cases (e.g. for solids) the pressure (volume) and/or temperature of the system can oscillate undesirably when a Nose/Hoover barostat and thermostat is applied.
# Typically a value between 0.2 to 2.0 is sufficient to damp oscillations after a few periods.
# Note that use of the drag keyword will interfere with energy conservation and will also change the distribution of positions and velocities so that they do not correspond to the nominal NVT# , NPT, or NPH ensembles.
# drag 0.1 ~ 2.0 is suitable

# dt = timestep size (time units)
# fix 1 all nvt temp 300.0 300.0 $(100.0*dt)
# A good choice for many models is a Pdamp of around 1000 timesteps

variable		L equal lz
variable		L0 equal 117.913840889931
variable		strain equal (v_L-v_L0)/v_L0	# define strain
variable                truestrain equal ln(1+v_strain)
variable 		pzz equal c_mypress[3]/10000	# stress. units, 1 GPa=1000 MPa, 1 bar=0.1 MPa. so 1 GPa = 10000 bar.
variable		pzzsq equal v_pzz*v_pzz

fix				strainstress all ave/time 1 100 100  v_strain v_truestrain v_pzz v_pzzsq  file strainstress.log
fix				9 all deform 1 z erate 0.0005  remap x	# L(t) = L0 (1 + erate*dt)
fix             10 all npt temp 300 300 $(100.0*dt) x 0.0 0.0 $(1000.0*dt) y 0.0 0.0 $(1000.0*dt) couple xy
fix             10 all npt temp 300 300 0.5 x 0.0 0.0 $(1000.0*dt) y 0.0 0.0 $(1000.0*dt) couple xy
fix             10 all npt temp 300 300 0.5 x 0.0 0.0 5 y 0.0 0.0 $(1000.0*dt) couple xy
fix             10 all npt temp 300 300 0.5 x 0.0 0.0 5 y 0.0 0.0 5 couple xy
fix				11 all momentum 20 linear 1 1 1
dump            1 all custom 4000 copper.dump id type x y z c_myCNA
run				52000
Generated 0 of 0 mixed pair_coeff terms from geometric mixing rule
Step          Temp           Fmax          Fnorm      c_thermo_temp   c_thermo_pe       Press      c_thermo_press[1] c_thermo_press[2] c_thermo_press[3] c_thermo_press[4] c_thermo_press[5] c_thermo_press[6]       Lx             Ly             Lz           Volume
215308   301.54986      2.5482216      257.28331      301.54986     -47259.441      0.14695708    -168.45534      262.29301     -93.396804      51.520331      102.27819     -62.51207       117.87333      117.84723      117.91384      1637946.5
Averages over the last 261 of 522 rows, steps 241400 to 267308:
Temp Fmax Fnorm c_thermo_temp c_thermo_pe Press c_thermo_press[1] c_thermo_press[2] c_thermo_press[3] c_thermo_press[4] c_thermo_press[5] c_thermo_press[6] Lx Ly Lz Volume
300.058 2.30134 254.239 300.058 -46638.8 -6088.51 -884.723 893.419 -18274.2 162.541 -390.264 -97.8585 112.864 112.839 129.437 1.64807e+06
Loop time of 2943.42 on 8 procs for 52000 steps with 132713 atoms

unfix 			strainstress
unfix           10
unfix			11

write_restart	restart.npt.21
System init for write_restart ...
Generated 0 of 0 mixed pair_coeff terms from geometric mixing rule
