LAMMPS (4 May 2022)
units 			metal
dimension		3
boundary		p    p    p
atom_style		atomic
box         	tilt large

neighbor 0.0 bin
neigh_modify    every 10 delay 0 check no

read_data   	copper.lmp
Reading data file ...
  triclinic box = (0 0 0) to (117 117 117) with tilt (0 0 0)
  reading atoms ...
  132852 atoms
mass            1 63.54600000

pair_style 		mdpu model.pb
pair_coeff		* *

variable        Ttarget equal 300.0			# Target tempture for annealing and MD

# compute		thermo_pe    all pe			# System potential energy
# compute 		thermo_temp  all temp
compute			mypress all  pressure thermo_temp
compute			myCNA   all cna/atom 3.10215312	# Common neighbor analysis

timestep		0.005  	# unit==psec==10^-12sec
thermo			100  	# 100==0.5psec			# Output frequency
thermo_style    custom step temp fmax fnorm c_thermo_temp c_thermo_pe press c_thermo_press[*] lx ly lz vol	# Box lengths in x,y,z

# no annealing?
# how to annealing though?

delete_atoms 	overlap 1.0 all all
System init for delete_atoms ...
Generated 0 of 0 mixed pair_coeff terms from geometric mixing rule
  update every 10 steps, delay 0 steps, check no
Deleted 597 atoms, new total = 132255

# dump          1 all custom 100 dump.relax id type xs ys zs fx fy fz c_atom_order[*]	# dump command, fx fy fz: forces on atoms
velocity        all create 300 9999 dist gaussian mom yes rot yes
fix             5 all npt temp 300 300 $(100.0*dt) iso 0.0 0.0 $(1000.0*dt)
fix             5 all npt temp 300 300 0.5 iso 0.0 0.0 $(1000.0*dt)
fix             5 all npt temp 300 300 0.5 iso 0.0 0.0 5
run             10000                                                                   # Pdamp = pressure damping parameter (time units)
Generated 0 of 0 mixed pair_coeff terms from geometric mixing rule
  update every 10 steps, delay 0 steps, check no
Step          Temp           Fmax          Fnorm      c_thermo_temp   c_thermo_pe       Press      c_thermo_press[1] c_thermo_press[2] c_thermo_press[3] c_thermo_press[4] c_thermo_press[5] c_thermo_press[6]       Lx             Ly             Lz           Volume
0   300            35.633837      1534.3594      300           -13982.302      66294.954      67468.516      66246.713      65169.632     -206.53032     -1149.5496      975.7976       117            117            117            1601613
Averages over the last 51 of 101 rows, steps 5000 to 10000:
Temp Fmax Fnorm c_thermo_temp c_thermo_pe Press c_thermo_press[1] c_thermo_press[2] c_thermo_press[3] c_thermo_press[4] c_thermo_press[5] c_thermo_press[6] Lx Ly Lz Volume
300.062 2.30678 256.892 300.062 -46907.8 -4.94065 71.3961 -71.8507 -14.3674 396.013 -368.213 -331.306 117.765 117.765 117.765 1.63324e+06
Loop time of 598.067 on 8 procs for 10000 steps with 132255 atoms

unfix           5

min_style       cg
min_modify      dmax 0.01 norm max
fix             1 all box/relax iso 0.0
minimize        1.000000e-13 1.000000e+3 5000 5000
Generated 0 of 0 mixed pair_coeff terms from geometric mixing rule
Step          Temp           Fmax          Fnorm      c_thermo_temp   c_thermo_pe       Press      c_thermo_press[1] c_thermo_press[2] c_thermo_press[3] c_thermo_press[4] c_thermo_press[5] c_thermo_press[6]       Lx             Ly             Lz           Volume
10000   300.87254      2.3189182      257.34906      300.87254     -46923.99      -87.256876      138.63721     -33.846402     -366.56144      327.81081     -353.9966      -388.50676      117.76572      117.76572      117.76572      1633264.9
Loop time of 1.23006 on 8 procs for 9 steps with 132255 atoms

Minimization stats:
  Stopping criterion = force tolerance
  Energy initial, next-to-last, final =
  Force two-norm initial, final = 10556.922 376.80112
  Force max component initial, final = 10553.785 272.58477
  Final line search alpha, max atom move = 7.0146073e-08 1.9120751e-05
  Iterations, force evaluations = 9 9

unfix           1
fix             1 all box/relax aniso 0.0
minimize        1.000000e-13 2.000000e+2 5000 5000
Generated 0 of 0 mixed pair_coeff terms from geometric mixing rule
Step          Temp           Fmax          Fnorm      c_thermo_temp   c_thermo_pe       Press      c_thermo_press[1] c_thermo_press[2] c_thermo_press[3] c_thermo_press[4] c_thermo_press[5] c_thermo_press[6]       Lx             Ly             Lz           Volume
10009   300.87254      2.3341408      260.14733      300.87254     -46929.144      3283.5151      3510.5671      3336.4587      3003.5195      330.89631     -357.11734     -391.61393      117.65973      117.65973      117.65973      1628859.1
Loop time of 0.303814 on 8 procs for 1 steps with 132255 atoms

Minimization stats:
  Stopping criterion = force tolerance
  Energy initial, next-to-last, final =
  Force two-norm initial, final = 471.04786 414.64456
  Force max component initial, final = 369.04004 286.24338
  Final line search alpha, max atom move = 1.3548666e-07 3.8782158e-05
  Iterations, force evaluations = 1 2

unfix           1
fix             1 all box/relax tri 0.0
minimize        1.000000e-13 1.000000e+2 5000 5000
Generated 0 of 0 mixed pair_coeff terms from geometric mixing rule
Step          Temp           Fmax          Fnorm      c_thermo_temp   c_thermo_pe       Press      c_thermo_press[1] c_thermo_press[2] c_thermo_press[3] c_thermo_press[4] c_thermo_press[5] c_thermo_press[6]       Lx             Ly             Lz           Volume
10010   300.87254      2.3339939      260.18554      300.87254     -46929.188      3330.0641      3529.5489      3375.5556      3085.0878      333.94769     -358.77224     -390.13944      117.6618       117.6592       117.65384      1628799
Loop time of 8.21074 on 8 procs for 9 steps with 132255 atoms

Minimization stats:
  Stopping criterion = linesearch alpha is zero
  Energy initial, next-to-last, final =
  Force two-norm initial, final = 760.93236 345.78397
  Force max component initial, final = 396.16818 141.47318
  Final line search alpha, max atom move = 8.4262818e-14 1.1920929e-11
  Iterations, force evaluations = 9 63

unfix           1

timestep        0.0005
min_style       quickmin
min_modify      dmax 0.01 norm max
fix             2 all viscous 0.2
minimize        0.0 100 5000 5000
Generated 0 of 0 mixed pair_coeff terms from geometric mixing rule
Step          Temp           Fmax          Fnorm      c_thermo_temp   c_thermo_pe       Press      c_thermo_press[1] c_thermo_press[2] c_thermo_press[3] c_thermo_press[4] c_thermo_press[5] c_thermo_press[6]       Lx             Ly             Lz           Volume
10019   0              2.3281727      260.21804      0             -46929.66      -0.24389851     37.999513      5.0986841     -43.829893      139.1668      -106.99944     -126.3014       117.68199      117.66275      117.626        1628742.3
Loop time of 0.11883 on 8 procs for 1 steps with 132255 atoms

Minimization stats:
  Stopping criterion = force tolerance
  Energy initial, next-to-last, final =
  Force two-norm initial, final = 260.21804 256.267
  Force max component initial, final = 2.3281727 2.2928228
  Final line search alpha, max atom move = 0 0
  Iterations, force evaluations = 1 1

unfix           2

min_style       cg
min_modify      dmax 0.01 norm max
fix             1 all box/relax tri 0.0
minimize        1.000000e-13 5.000000e+1 1000 10000
Generated 0 of 0 mixed pair_coeff terms from geometric mixing rule
Step          Temp           Fmax          Fnorm      c_thermo_temp   c_thermo_pe       Press      c_thermo_press[1] c_thermo_press[2] c_thermo_press[3] c_thermo_press[4] c_thermo_press[5] c_thermo_press[6]       Lx             Ly             Lz           Volume
10020   0.075176907    2.3281727      260.21804      0.075176907   -46929.66       0.5989017      38.846632      5.938402      -42.988329      139.16325     -107.00094     -126.299        117.68199      117.66275      117.626        1628742.3
Loop time of 3.13891 on 8 procs for 1 steps with 132255 atoms

Minimization stats:
  Stopping criterion = quadratic factors are zero
  Energy initial, next-to-last, final =
  Force two-norm initial, final = 345.80061 345.80061
  Force max component initial, final = 141.49746 141.49746
  Final line search alpha, max atom move = 3.3699344e-13 4.7683716e-11
  Iterations, force evaluations = 1 24

unfix           1

timestep        0.0005
min_style       quickmin
min_modify      dmax 0.01 norm max
fix             2 all viscous 0.2
minimize        0.0 2.0e+1 10000 10000
Generated 0 of 0 mixed pair_coeff terms from geometric mixing rule
Step          Temp           Fmax          Fnorm      c_thermo_temp   c_thermo_pe       Press      c_thermo_press[1] c_thermo_press[2] c_thermo_press[3] c_thermo_press[4] c_thermo_press[5] c_thermo_press[6]       Lx             Ly             Lz           Volume
10021   0              2.3281727      260.21804      0             -46929.66      -0.24389851     37.999513      5.0986841     -43.829893      139.1668      -106.99944     -126.3014       117.68199      117.66275      117.626        1628742.3
Loop time of 0.119155 on 8 procs for 1 steps with 132255 atoms

Minimization stats:
  Stopping criterion = force tolerance
  Energy initial, next-to-last, final =
  Force two-norm initial, final = 260.21804 256.267
  Force max component initial, final = 2.3281727 2.2928228
  Final line search alpha, max atom move = 0 0
  Iterations, force evaluations = 1 1

unfix           2

min_style       cg
min_modify      dmax 0.01 norm max
fix             1 all box/relax tri 0.0
minimize        1.000000e-13 1.000000e+1 10000 10000
Generated 0 of 0 mixed pair_coeff terms from geometric mixing rule
Step          Temp           Fmax          Fnorm      c_thermo_temp   c_thermo_pe       Press      c_thermo_press[1] c_thermo_press[2] c_thermo_press[3] c_thermo_press[4] c_thermo_press[5] c_thermo_press[6]       Lx             Ly             Lz           Volume
10022   0.075176907    2.3281727      260.21804      0.075176907   -46929.66       0.5989017      38.846632      5.938402      -42.988329      139.16325     -107.00094     -126.299        117.68199      117.66275      117.626        1628742.3
Loop time of 3.1588 on 8 procs for 1 steps with 132255 atoms

Minimization stats:
  Stopping criterion = quadratic factors are zero
  Energy initial, next-to-last, final =
  Force two-norm initial, final = 345.80061 345.80061
  Force max component initial, final = 141.49746 141.49746
  Final line search alpha, max atom move = 3.3699344e-13 4.7683716e-11
  Iterations, force evaluations = 1 24

unfix           1

min_style       quickmin
min_modify      dmax 0.01 norm max
fix             2 all viscous 0.1
minimize        0.0 1.0e-0 20000 20000
Generated 0 of 0 mixed pair_coeff terms from geometric mixing rule
Step          Temp           Fmax          Fnorm      c_thermo_temp   c_thermo_pe       Press      c_thermo_press[1] c_thermo_press[2] c_thermo_press[3] c_thermo_press[4] c_thermo_press[5] c_thermo_press[6]       Lx             Ly             Lz           Volume
10023   0              2.3281727      260.21804      0             -46929.66      -0.24389851     37.999513      5.0986841     -43.829893      139.1668      -106.99944     -126.3014       117.68199      117.66275      117.626        1628742.3
Loop time of 6.01889 on 8 procs for 44 steps with 132255 atoms

Minimization stats:
  Stopping criterion = force tolerance
  Energy initial, next-to-last, final =
  Force two-norm initial, final = 260.21804 120.60262
  Force max component initial, final = 2.3281727 0.90616115
  Final line search alpha, max atom move = 0 0
  Iterations, force evaluations = 44 44

unfix           2

min_style       cg
min_modify      dmax 0.01 norm max
fix             1 all box/relax tri 0.0
minimize        1.000000e-13 5.000000e-1 20000 20000
Generated 0 of 0 mixed pair_coeff terms from geometric mixing rule
Step          Temp           Fmax          Fnorm      c_thermo_temp   c_thermo_pe       Press      c_thermo_press[1] c_thermo_press[2] c_thermo_press[3] c_thermo_press[4] c_thermo_press[5] c_thermo_press[6]       Lx             Ly             Lz           Volume
10067   84.243314      1.4038944      186.73239      84.243314     -48705.359     -5449.2062     -5404.2305     -5446.7298     -5496.6581      145.64098     -118.42461     -129.94074      117.68199      117.66275      117.626        1628742.3
Loop time of 10.0721 on 8 procs for 26 steps with 132255 atoms

Minimization stats:
  Stopping criterion = quadratic factors are zero
  Energy initial, next-to-last, final =
  Force two-norm initial, final = 11261.936 251.56075
  Force max component initial, final = 6547.0356 103.3723
  Final line search alpha, max atom move = 2.3064068e-13 2.3841858e-11
  Iterations, force evaluations = 26 70

unfix           1

min_style       quickmin
min_modify      dmax 0.01 norm max
fix             2 all viscous 0.2
minimize        0.0 4.0e-1 20000 20000
Generated 0 of 0 mixed pair_coeff terms from geometric mixing rule
Step          Temp           Fmax          Fnorm      c_thermo_temp   c_thermo_pe       Press      c_thermo_press[1] c_thermo_press[2] c_thermo_press[3] c_thermo_press[4] c_thermo_press[5] c_thermo_press[6]       Lx             Ly             Lz           Volume
10093   0              1.4326744      190.47289      0             -48722.796     -72.560264     -102.03469     -79.508546     -36.137554     -16.956954      71.945243      52.869234      117.49607      117.46804      117.41862      1620615.5
Loop time of 6.69212 on 8 procs for 50 steps with 132255 atoms

Minimization stats:
  Stopping criterion = force tolerance
  Energy initial, next-to-last, final =
  Force two-norm initial, final = 190.47289 52.181401
  Force max component initial, final = 1.4326744 0.36941754
  Final line search alpha, max atom move = 0 0
  Iterations, force evaluations = 50 50

unfix           2

min_style       cg
min_modify      dmax 0.01 norm max
fix             1 all box/relax tri 0.0
minimize        1.000000e-13 2.000000e-1 20000 20000
Generated 0 of 0 mixed pair_coeff terms from geometric mixing rule
Step          Temp           Fmax          Fnorm      c_thermo_temp   c_thermo_pe       Press      c_thermo_press[1] c_thermo_press[2] c_thermo_press[3] c_thermo_press[4] c_thermo_press[5] c_thermo_press[6]       Lx             Ly             Lz           Volume
10143   38.721087      1.0059433      141.28247      38.721087     -49829.575     -3617.74       -3640.5929     -3620.7274     -3591.8998     -6.9666408      57.013102      45.555743      117.49607      117.46804      117.41862      1620615.5
Loop time of 4.35512 on 8 procs for 10 steps with 132255 atoms

Minimization stats:
  Stopping criterion = quadratic factors are zero
  Energy initial, next-to-last, final =
  Force two-norm initial, final = 7104.447 1076.1756
  Force max component initial, final = 4125.675 633.49489
  Final line search alpha, max atom move = 3.0108351e-13 1.9073486e-10
  Iterations, force evaluations = 10 32

unfix           1

timestep        0.0005
min_style       quickmin
min_modify      dmax 0.01 norm max
fix             2 all viscous 0.2
minimize        0.0 1.0e-1 40000 40000
Generated 0 of 0 mixed pair_coeff terms from geometric mixing rule
Step          Temp           Fmax          Fnorm      c_thermo_temp   c_thermo_pe       Press      c_thermo_press[1] c_thermo_press[2] c_thermo_press[3] c_thermo_press[4] c_thermo_press[5] c_thermo_press[6]       Lx             Ly             Lz           Volume
10153   0              1.0168438      142.77614      0             -49836.267     -608.84624     -627.3982      -610.20956     -588.93096     -5.55637        44.671239      33.778863      117.39032      117.36333      117.31525      1616289.5
Averages over the last 9 of 17 rows, steps 10900 to 11672:
Temp Fmax Fnorm c_thermo_temp c_thermo_pe Press c_thermo_press[1] c_thermo_press[2] c_thermo_press[3] c_thermo_press[4] c_thermo_press[5] c_thermo_press[6] Lx Ly Lz Volume
0.113877 0.181293 4.86177 0.113877 -52343.8 -8851 -8788.67 -8840.39 -8923.95 93.0013 -7.71771 -27.7282 117.39 117.363 117.315 1.61629e+06
Loop time of 200.866 on 8 procs for 1519 steps with 132255 atoms

Minimization stats:
  Stopping criterion = force tolerance
  Energy initial, next-to-last, final =
  Force two-norm initial, final = 142.77614 3.3555393
  Force max component initial, final = 1.0168438 0.080124902
  Final line search alpha, max atom move = 0 0
  Iterations, force evaluations = 1519 1519

unfix           2

min_style       cg
min_modify      dmax 0.01 norm max
fix             1 all box/relax tri 0.0
minimize        1.000000e-13 1.000000e-1 40000 40000
Generated 0 of 0 mixed pair_coeff terms from geometric mixing rule
Step          Temp           Fmax          Fnorm      c_thermo_temp   c_thermo_pe       Press      c_thermo_press[1] c_thermo_press[2] c_thermo_press[3] c_thermo_press[4] c_thermo_press[5] c_thermo_press[6]       Lx             Ly             Lz           Volume
11672   0.050186023    0.15111542     6.5578784      0.050186023   -52395.8       -8960.2926     -8889.0347     -8954.0678     -9037.7754      104.30501     -8.2695335     -38.02146       117.39032      117.36333      117.31525      1616289.5
Loop time of 15.162 on 8 procs for 26 steps with 132255 atoms

Minimization stats:
  Stopping criterion = linesearch alpha is zero
  Energy initial, next-to-last, final =
  Force two-norm initial, final = 15658.146 81.951726
  Force max component initial, final = 9117.963 57.315853
  Final line search alpha, max atom move = 1.6638927e-12 9.5367432e-11
  Iterations, force evaluations = 26 112

unfix           1

min_style       quickmin
min_modify      dmax 0.01 norm max
fix             2 all viscous 0.2
minimize        0.0 5.0e-2 40000 40000
Generated 0 of 0 mixed pair_coeff terms from geometric mixing rule
Step          Temp           Fmax          Fnorm      c_thermo_temp   c_thermo_pe       Press      c_thermo_press[1] c_thermo_press[2] c_thermo_press[3] c_thermo_press[4] c_thermo_press[5] c_thermo_press[6]       Lx             Ly             Lz           Volume
11698   0              0.15680695     6.8511854      0             -52440.414      24.843063      47.347431      26.035696      1.1460603      57.066801     -4.5820917     -20.348914      117.12366      117.09154      117.0374       1605073.2
Averages over the last 58 of 116 rows, steps 17400 to 23095:
Temp Fmax Fnorm c_thermo_temp c_thermo_pe Press c_thermo_press[1] c_thermo_press[2] c_thermo_press[3] c_thermo_press[4] c_thermo_press[5] c_thermo_press[6] Lx Ly Lz Volume
0.000703804 0.0589397 0.63945 0.000703804 -52524.5 -176.608 -107.611 -220.402 -201.812 138.041 -38.9832 -89.5461 117.124 117.092 117.037 1.60507e+06
Loop time of 1518.91 on 8 procs for 11397 steps with 132255 atoms

Minimization stats:
  Stopping criterion = force tolerance
  Energy initial, next-to-last, final =
  Force two-norm initial, final = 6.8511854 0.5147225
  Force max component initial, final = 0.15680695 0.037675578
  Final line search alpha, max atom move = 0 0
  Iterations, force evaluations = 11397 11397

unfix           2

min_style       cg
min_modify      dmax 0.01 norm max
fix             1 all box/relax tri 0.0
minimize        1.000000e-13 2.000000e-2 40000 40000
Generated 0 of 0 mixed pair_coeff terms from geometric mixing rule
Step          Temp           Fmax          Fnorm      c_thermo_temp   c_thermo_pe       Press      c_thermo_press[1] c_thermo_press[2] c_thermo_press[3] c_thermo_press[4] c_thermo_press[5] c_thermo_press[6]       Lx             Ly             Lz           Volume
23095   0.00035142871  0.05745697     0.78045626     0.00035142871 -52527.211     -177.26286     -102.39815     -222.37917     -207.01126      148.95296     -45.217259     -96.47135       117.12366      117.09154      117.0374       1605073.2
Loop time of 5.83359 on 8 procs for 1 steps with 132255 atoms

Minimization stats:
  Stopping criterion = quadratic factors are zero
  Energy initial, next-to-last, final =
  Force two-norm initial, final = 369.93518 369.93518
  Force max component initial, final = 222.78516 222.78516
  Final line search alpha, max atom move = 4.2806905e-13 9.5367432e-11
  Iterations, force evaluations = 1 41

unfix           1

min_style       quickmin
min_modify      dmax 0.01 norm max
fix             2 all viscous 0.2
minimize        0.0 1.0e-2 50000 50000
Generated 0 of 0 mixed pair_coeff terms from geometric mixing rule
Step          Temp           Fmax          Fnorm      c_thermo_temp   c_thermo_pe       Press      c_thermo_press[1] c_thermo_press[2] c_thermo_press[3] c_thermo_press[4] c_thermo_press[5] c_thermo_press[6]       Lx             Ly             Lz           Volume
23096   0              0.05745697     0.78045626     0             -52527.211     -177.26686     -102.40218     -222.3831      -207.0153       148.95309     -45.217259     -96.471342      117.12366      117.09154      117.0374       1605073.2
Averages over the last 251 of 502 rows, steps 48100 to 73096:
Temp Fmax Fnorm c_thermo_temp c_thermo_pe Press c_thermo_press[1] c_thermo_press[2] c_thermo_press[3] c_thermo_press[4] c_thermo_press[5] c_thermo_press[6] Lx Ly Lz Volume
1.39801e-05 0.0342125 0.265975 1.39801e-05 -52532.1 -175.048 -82.9381 -215.786 -226.42 179.562 -66.9755 -119.854 117.124 117.092 117.037 1.60507e+06
Loop time of 6643.01 on 8 procs for 50000 steps with 132255 atoms

Minimization stats:
  Stopping criterion = max iterations
  Energy initial, next-to-last, final =
  Force two-norm initial, final = 0.78045626 0.25183751
  Force max component initial, final = 0.05745697 0.039780733
  Final line search alpha, max atom move = 0 0
  Iterations, force evaluations = 50000 50000

unfix           2

min_style       cg
min_modify      dmax 0.01 norm max
fix             1 all box/relax tri 0.0
minimize        1.000000e-13 1.000000e-2 50000 50000
Generated 0 of 0 mixed pair_coeff terms from geometric mixing rule
Step          Temp           Fmax          Fnorm      c_thermo_temp   c_thermo_pe       Press      c_thermo_press[1] c_thermo_press[2] c_thermo_press[3] c_thermo_press[4] c_thermo_press[5] c_thermo_press[6]       Lx             Ly             Lz           Volume
73096   7.5787257e-06  0.046072006    0.2879408      7.5787257e-06 -52532.322     -173.38773     -81.474453     -214.00806     -224.68069      179.4962      -68.53896      -121.27856      117.12366      117.09154      117.0374       1605073.2
Loop time of 5.55153 on 8 procs for 1 steps with 132255 atoms

Minimization stats:
  Stopping criterion = quadratic factors are zero
  Energy initial, next-to-last, final =
  Force two-norm initial, final = 393.8804 393.8804
  Force max component initial, final = 225.08699 225.08699
  Final line search alpha, max atom move = 4.2369144e-13 9.5367432e-11
  Iterations, force evaluations = 1 41

unfix           1

min_style       quickmin
min_modify      dmax 0.01 norm max
fix             2 all viscous 0.2
minimize        0.0 1.0e-2 50000 50000
Generated 0 of 0 mixed pair_coeff terms from geometric mixing rule
Step          Temp           Fmax          Fnorm      c_thermo_temp   c_thermo_pe       Press      c_thermo_press[1] c_thermo_press[2] c_thermo_press[3] c_thermo_press[4] c_thermo_press[5] c_thermo_press[6]       Lx             Ly             Lz           Volume
73097   0              0.046072006    0.2879408      0             -52532.322     -173.38782     -81.474537     -214.00814     -224.68078      179.49621     -68.538971     -121.27856      117.12366      117.09154      117.0374       1605073.2
Averages over the last 251 of 502 rows, steps 98100 to 123097:
Temp Fmax Fnorm c_thermo_temp c_thermo_pe Press c_thermo_press[1] c_thermo_press[2] c_thermo_press[3] c_thermo_press[4] c_thermo_press[5] c_thermo_press[6] Lx Ly Lz Volume
2.92215e-06 0.0225248 0.202385 2.92215e-06 -52532.9 -173.454 -86.48 -210.672 -223.209 178.882 -70.0392 -123.222 117.124 117.092 117.037 1.60507e+06
Loop time of 6508.74 on 8 procs for 50000 steps with 132255 atoms

Minimization stats:
  Stopping criterion = max iterations
  Energy initial, next-to-last, final =
  Force two-norm initial, final = 0.2879408 0.18983547
  Force max component initial, final = 0.046072006 0.019318041
  Final line search alpha, max atom move = 0 0
  Iterations, force evaluations = 50000 50000

unfix           2

timestep        0.005
fix             5 all npt temp 300 300 $(100.0*dt) iso 0.0 0.0 $(1000.0*dt)
fix             5 all npt temp 300 300 0.5 iso 0.0 0.0 $(1000.0*dt)
fix             5 all npt temp 300 300 0.5 iso 0.0 0.0 5
run             100000                                                                   # Pdamp = pressure damping parameter (time units)
Generated 0 of 0 mixed pair_coeff terms from geometric mixing rule
Step          Temp           Fmax          Fnorm      c_thermo_temp   c_thermo_pe       Press      c_thermo_press[1] c_thermo_press[2] c_thermo_press[3] c_thermo_press[4] c_thermo_press[5] c_thermo_press[6]       Lx             Ly             Lz           Volume
123097   2.0741099e-06  0.021440506    0.20772272     2.0741099e-06 -52533.021     -173.01338     -87.496722     -208.82239     -222.72102      178.72662     -70.836916     -123.77999      117.12366      117.09154      117.0374       1605073.2
Averages over the last 501 of 1002 rows, steps 173100 to 223097:
Temp Fmax Fnorm c_thermo_temp c_thermo_pe Press c_thermo_press[1] c_thermo_press[2] c_thermo_press[3] c_thermo_press[4] c_thermo_press[5] c_thermo_press[6] Lx Ly Lz Volume
299.971 2.30875 257.017 299.971 -47126.4 0.0900132 -211.923 254.046 -41.8525 150.633 124.013 -22.1291 117.778 117.746 117.691 1.63213e+06
Loop time of 5626.37 on 8 procs for 100000 steps with 132255 atoms

unfix           5

# What is a drag?
# In some cases (e.g. for solids) the pressure (volume) and/or temperature of the system can oscillate undesirably when a Nose/Hoover barostat and thermostat is applied.
# Typically a value between 0.2 to 2.0 is sufficient to damp oscillations after a few periods.
# Note that use of the drag keyword will interfere with energy conservation and will also change the distribution of positions and velocities so that they do not correspond to the nominal NVT# , NPT, or NPH ensembles.
# drag 0.1 ~ 2.0 is suitable

# dt = timestep size (time units)
# fix 1 all nvt temp 300.0 300.0 $(100.0*dt)
# A good choice for many models is a Pdamp of around 1000 timesteps

variable		L equal lz
variable		L0 equal 117.687314510345
variable		strain equal (v_L-v_L0)/v_L0	# define strain
variable                truestrain equal ln(1+v_strain)
variable 		pzz equal c_mypress[3]/10000	# stress. units, 1 GPa=1000 MPa, 1 bar=0.1 MPa. so 1 GPa = 10000 bar.
variable		pzzsq equal v_pzz*v_pzz

fix				strainstress all ave/time 1 100 100  v_strain v_truestrain v_pzz v_pzzsq  file strainstress.log
fix				9 all deform 1 z erate 0.0005  remap x	# L(t) = L0 (1 + erate*dt)
fix             10 all npt temp 300 300 $(100.0*dt) x 0.0 0.0 $(1000.0*dt) y 0.0 0.0 $(1000.0*dt) couple xy
fix             10 all npt temp 300 300 0.5 x 0.0 0.0 $(1000.0*dt) y 0.0 0.0 $(1000.0*dt) couple xy
fix             10 all npt temp 300 300 0.5 x 0.0 0.0 5 y 0.0 0.0 $(1000.0*dt) couple xy
fix             10 all npt temp 300 300 0.5 x 0.0 0.0 5 y 0.0 0.0 5 couple xy
fix				11 all momentum 20 linear 1 1 1
dump            1 all custom 4000 copper.dump id type x y z c_myCNA
run				52000
Generated 0 of 0 mixed pair_coeff terms from geometric mixing rule
Step          Temp           Fmax          Fnorm      c_thermo_temp   c_thermo_pe       Press      c_thermo_press[1] c_thermo_press[2] c_thermo_press[3] c_thermo_press[4] c_thermo_press[5] c_thermo_press[6]       Lx             Ly             Lz           Volume
223097   300.26883      2.5384312      256.64867      300.26883     -47152.44       45.357469     -161.96426      247.71879      50.31788       78.101733      86.786933      134.05233      117.77405      117.74179      117.68731      1631961.6
Averages over the last 261 of 522 rows, steps 249100 to 275097:
Temp Fmax Fnorm c_thermo_temp c_thermo_pe Press c_thermo_press[1] c_thermo_press[2] c_thermo_press[3] c_thermo_press[4] c_thermo_press[5] c_thermo_press[6] Lx Ly Lz Volume
300.052 2.28382 253.821 300.052 -46510.1 -6030.57 -531.448 532.552 -18092.8 -1147.67 187.012 586.77 112.774 112.743 129.163 1.64186e+06
Loop time of 2960.55 on 8 procs for 52000 steps with 132255 atoms

unfix 			strainstress
unfix           10
unfix			11

write_restart	restart.npt.21
System init for write_restart ...
Generated 0 of 0 mixed pair_coeff terms from geometric mixing rule
